<routes>
                               <vType id="car" accel="1.0" decel="4.5" sigma="0.7" length="5" minGap="3" maxSpeed="15" guiShape="passenger"/>

                               <route id="WETop" edges="5i 1i 2o" />
                               <route id="EWTop" edges="2i 1o 5o" />
                               <route id="NS" edges="4i 3o 8i" />
                               <route id="SN" edges="8o 3i 4o" />
                               <route id="WEBottom" edges="7o 11o" />
                               <route id="EWBottom" edges="11i 7i" />

                               <route id="t2" edges="8o 7i" />
                               <route id="t3" edges="4i 1o 6i" />
                               <route id="t4" edges="7o 3i 2o" />
                               <route id="t5" edges="6o 1i 4o" />
                               <route id="t6" edges="5i 1i 3o 11o" />
                               
    <vehicle id="t3_0" type="car" route="t3" depart="0" departSpeed="5"/>
    <vehicle id="t6_1" type="car" route="t6" depart="0" departSpeed="5"/>
    <vehicle id="t4_2" type="car" route="t4" depart="1" departSpeed="5"/>
    <vehicle id="t3_3" type="car" route="t3" depart="4" departSpeed="5"/>
    <vehicle id="EWTop_4" type="car" route="EWTop" depart="5" departSpeed="5"/>
    <vehicle id="EWBottom_5" type="car" route="EWBottom" depart="5" departSpeed="5"/>
    <vehicle id="t2_6" type="car" route="t2" depart="5" departSpeed="5"/>
    <vehicle id="t6_7" type="car" route="t6" depart="6" departSpeed="5"/>
    <vehicle id="t3_8" type="car" route="t3" depart="7" departSpeed="5"/>
    <vehicle id="t5_9" type="car" route="t5" depart="8" departSpeed="5"/>
    <vehicle id="t3_10" type="car" route="t3" depart="11" departSpeed="5"/>
    <vehicle id="NS_11" type="car" route="NS" depart="16" departSpeed="5"/>
    <vehicle id="SN_12" type="car" route="SN" depart="16" departSpeed="5"/>
    <vehicle id="t4_13" type="car" route="t4" depart="19" departSpeed="5"/>
    <vehicle id="t5_14" type="car" route="t5" depart="19" departSpeed="5"/>
    <vehicle id="t2_15" type="car" route="t2" depart="20" departSpeed="5"/>
    <vehicle id="SN_16" type="car" route="SN" depart="21" departSpeed="5"/>
    <vehicle id="EWTop_17" type="car" route="EWTop" depart="23" departSpeed="5"/>
    <vehicle id="t3_18" type="car" route="t3" depart="23" departSpeed="5"/>
    <vehicle id="t6_19" type="car" route="t6" depart="23" departSpeed="5"/>
    <vehicle id="EWBottom_20" type="car" route="EWBottom" depart="24" departSpeed="5"/>
    <vehicle id="EWTop_21" type="car" route="EWTop" depart="25" departSpeed="5"/>
    <vehicle id="t5_22" type="car" route="t5" depart="25" departSpeed="5"/>
    <vehicle id="WETop_23" type="car" route="WETop" depart="26" departSpeed="5"/>
    <vehicle id="EWBottom_24" type="car" route="EWBottom" depart="26" departSpeed="5"/>
    <vehicle id="t4_25" type="car" route="t4" depart="26" departSpeed="5"/>
    <vehicle id="EWTop_26" type="car" route="EWTop" depart="27" departSpeed="5"/>
    <vehicle id="NS_27" type="car" route="NS" depart="31" departSpeed="5"/>
    <vehicle id="SN_28" type="car" route="SN" depart="31" departSpeed="5"/>
    <vehicle id="WETop_29" type="car" route="WETop" depart="33" departSpeed="5"/>
    <vehicle id="NS_30" type="car" route="NS" depart="34" departSpeed="5"/>
    <vehicle id="t3_31" type="car" route="t3" depart="34" departSpeed="5"/>
    <vehicle id="EWBottom_32" type="car" route="EWBottom" depart="37" departSpeed="5"/>
    <vehicle id="NS_33" type="car" route="NS" depart="37" departSpeed="5"/>
    <vehicle id="EWTop_34" type="car" route="EWTop" depart="38" departSpeed="5"/>
    <vehicle id="EWBottom_35" type="car" route="EWBottom" depart="38" departSpeed="5"/>
    <vehicle id="t4_36" type="car" route="t4" depart="38" departSpeed="5"/>
    <vehicle id="EWBottom_37" type="car" route="EWBottom" depart="39" departSpeed="5"/>
    <vehicle id="SN_38" type="car" route="SN" depart="39" departSpeed="5"/>
    <vehicle id="t4_39" type="car" route="t4" depart="39" departSpeed="5"/>
    <vehicle id="t2_40" type="car" route="t2" depart="40" departSpeed="5"/>
    <vehicle id="EWBottom_41" type="car" route="EWBottom" depart="41" departSpeed="5"/>
    <vehicle id="WETop_42" type="car" route="WETop" depart="44" departSpeed="5"/>
    <vehicle id="t2_43" type="car" route="t2" depart="44" departSpeed="5"/>
    <vehicle id="SN_44" type="car" route="SN" depart="45" departSpeed="5"/>
    <vehicle id="SN_45" type="car" route="SN" depart="47" departSpeed="5"/>
    <vehicle id="EWTop_46" type="car" route="EWTop" depart="48" departSpeed="5"/>
    <vehicle id="NS_47" type="car" route="NS" depart="49" departSpeed="5"/>
    <vehicle id="t2_48" type="car" route="t2" depart="49" departSpeed="5"/>
    <vehicle id="NS_49" type="car" route="NS" depart="50" departSpeed="5"/>
    <vehicle id="t3_50" type="car" route="t3" depart="50" departSpeed="5"/>
    <vehicle id="EWTop_51" type="car" route="EWTop" depart="55" departSpeed="5"/>
    <vehicle id="t3_52" type="car" route="t3" depart="56" departSpeed="5"/>
    <vehicle id="t5_53" type="car" route="t5" depart="57" departSpeed="5"/>
    <vehicle id="NS_54" type="car" route="NS" depart="59" departSpeed="5"/>
    <vehicle id="WETop_55" type="car" route="WETop" depart="60" departSpeed="5"/>
    <vehicle id="NS_56" type="car" route="NS" depart="60" departSpeed="5"/>
    <vehicle id="t3_57" type="car" route="t3" depart="60" departSpeed="5"/>
    <vehicle id="WEBottom_58" type="car" route="WEBottom" depart="61" departSpeed="5"/>
    <vehicle id="WETop_59" type="car" route="WETop" depart="62" departSpeed="5"/>
    <vehicle id="WETop_60" type="car" route="WETop" depart="63" departSpeed="5"/>
    <vehicle id="WEBottom_61" type="car" route="WEBottom" depart="63" departSpeed="5"/>
    <vehicle id="EWBottom_62" type="car" route="EWBottom" depart="64" departSpeed="5"/>
    <vehicle id="WEBottom_63" type="car" route="WEBottom" depart="66" departSpeed="5"/>
    <vehicle id="EWBottom_64" type="car" route="EWBottom" depart="66" departSpeed="5"/>
    <vehicle id="t2_65" type="car" route="t2" depart="69" departSpeed="5"/>
    <vehicle id="t6_66" type="car" route="t6" depart="71" departSpeed="5"/>
    <vehicle id="t3_67" type="car" route="t3" depart="73" departSpeed="5"/>
    <vehicle id="EWTop_68" type="car" route="EWTop" depart="74" departSpeed="5"/>
    <vehicle id="t3_69" type="car" route="t3" depart="74" departSpeed="5"/>
    <vehicle id="t4_70" type="car" route="t4" depart="74" departSpeed="5"/>
    <vehicle id="WEBottom_71" type="car" route="WEBottom" depart="76" departSpeed="5"/>
    <vehicle id="NS_72" type="car" route="NS" depart="76" departSpeed="5"/>
    <vehicle id="EWTop_73" type="car" route="EWTop" depart="77" departSpeed="5"/>
    <vehicle id="t3_74" type="car" route="t3" depart="77" departSpeed="5"/>
    <vehicle id="t5_75" type="car" route="t5" depart="77" departSpeed="5"/>
    <vehicle id="t5_76" type="car" route="t5" depart="78" departSpeed="5"/>
    <vehicle id="WETop_77" type="car" route="WETop" depart="79" departSpeed="5"/>
    <vehicle id="t2_78" type="car" route="t2" depart="80" departSpeed="5"/>
    <vehicle id="t6_79" type="car" route="t6" depart="81" departSpeed="5"/>
    <vehicle id="WETop_80" type="car" route="WETop" depart="82" departSpeed="5"/>
    <vehicle id="t2_81" type="car" route="t2" depart="82" departSpeed="5"/>
    <vehicle id="SN_82" type="car" route="SN" depart="83" departSpeed="5"/>
    <vehicle id="t2_83" type="car" route="t2" depart="83" departSpeed="5"/>
    <vehicle id="t2_84" type="car" route="t2" depart="84" departSpeed="5"/>
    <vehicle id="EWBottom_85" type="car" route="EWBottom" depart="87" departSpeed="5"/>
    <vehicle id="NS_86" type="car" route="NS" depart="87" departSpeed="5"/>
    <vehicle id="EWBottom_87" type="car" route="EWBottom" depart="88" departSpeed="5"/>
    <vehicle id="WETop_88" type="car" route="WETop" depart="89" departSpeed="5"/>
    <vehicle id="NS_89" type="car" route="NS" depart="89" departSpeed="5"/>
    <vehicle id="t5_90" type="car" route="t5" depart="90" departSpeed="5"/>
    <vehicle id="t4_91" type="car" route="t4" depart="91" departSpeed="5"/>
    <vehicle id="WETop_92" type="car" route="WETop" depart="92" departSpeed="5"/>
    <vehicle id="t5_93" type="car" route="t5" depart="92" departSpeed="5"/>
    <vehicle id="EWTop_94" type="car" route="EWTop" depart="93" departSpeed="5"/>
    <vehicle id="t4_95" type="car" route="t4" depart="93" departSpeed="5"/>
    <vehicle id="EWTop_96" type="car" route="EWTop" depart="94" departSpeed="5"/>
    <vehicle id="t5_97" type="car" route="t5" depart="94" departSpeed="5"/>
    <vehicle id="t5_98" type="car" route="t5" depart="95" departSpeed="5"/>
    <vehicle id="EWTop_99" type="car" route="EWTop" depart="96" departSpeed="5"/>
    <vehicle id="t4_100" type="car" route="t4" depart="96" departSpeed="5"/>
    <vehicle id="WETop_101" type="car" route="WETop" depart="97" departSpeed="5"/>
    <vehicle id="EWTop_102" type="car" route="EWTop" depart="99" departSpeed="5"/>
    <vehicle id="WETop_103" type="car" route="WETop" depart="100" departSpeed="5"/>
    <vehicle id="EWBottom_104" type="car" route="EWBottom" depart="100" departSpeed="5"/>
    <vehicle id="SN_105" type="car" route="SN" depart="100" departSpeed="5"/>
    <vehicle id="SN_106" type="car" route="SN" depart="102" departSpeed="5"/>
    <vehicle id="EWTop_107" type="car" route="EWTop" depart="104" departSpeed="5"/>
    <vehicle id="t3_108" type="car" route="t3" depart="104" departSpeed="5"/>
    <vehicle id="NS_109" type="car" route="NS" depart="106" departSpeed="5"/>
    <vehicle id="t2_110" type="car" route="t2" depart="107" departSpeed="5"/>
    <vehicle id="NS_111" type="car" route="NS" depart="109" departSpeed="5"/>
    <vehicle id="t4_112" type="car" route="t4" depart="109" departSpeed="5"/>
    <vehicle id="t3_113" type="car" route="t3" depart="110" departSpeed="5"/>
    <vehicle id="t6_114" type="car" route="t6" depart="112" departSpeed="5"/>
    <vehicle id="EWTop_115" type="car" route="EWTop" depart="116" departSpeed="5"/>
    <vehicle id="EWBottom_116" type="car" route="EWBottom" depart="116" departSpeed="5"/>
    <vehicle id="t6_117" type="car" route="t6" depart="116" departSpeed="5"/>
    <vehicle id="t2_118" type="car" route="t2" depart="117" departSpeed="5"/>
    <vehicle id="t3_119" type="car" route="t3" depart="117" departSpeed="5"/>
    <vehicle id="t3_120" type="car" route="t3" depart="120" departSpeed="5"/>
    <vehicle id="t4_121" type="car" route="t4" depart="120" departSpeed="5"/>
    <vehicle id="SN_122" type="car" route="SN" depart="123" departSpeed="5"/>
    <vehicle id="t3_123" type="car" route="t3" depart="123" departSpeed="5"/>
    <vehicle id="t2_124" type="car" route="t2" depart="124" departSpeed="5"/>
    <vehicle id="t2_125" type="car" route="t2" depart="125" departSpeed="5"/>
    <vehicle id="t6_126" type="car" route="t6" depart="125" departSpeed="5"/>
    <vehicle id="NS_127" type="car" route="NS" depart="128" departSpeed="5"/>
    <vehicle id="SN_128" type="car" route="SN" depart="128" departSpeed="5"/>
    <vehicle id="EWTop_129" type="car" route="EWTop" depart="130" departSpeed="5"/>
    <vehicle id="EWBottom_130" type="car" route="EWBottom" depart="132" departSpeed="5"/>
    <vehicle id="SN_131" type="car" route="SN" depart="132" departSpeed="5"/>
    <vehicle id="t6_132" type="car" route="t6" depart="133" departSpeed="5"/>
    <vehicle id="SN_133" type="car" route="SN" depart="134" departSpeed="5"/>
    <vehicle id="t3_134" type="car" route="t3" depart="134" departSpeed="5"/>
    <vehicle id="t5_135" type="car" route="t5" depart="136" departSpeed="5"/>
    <vehicle id="WEBottom_136" type="car" route="WEBottom" depart="137" departSpeed="5"/>
    <vehicle id="t2_137" type="car" route="t2" depart="137" departSpeed="5"/>
    <vehicle id="WETop_138" type="car" route="WETop" depart="138" departSpeed="5"/>
    <vehicle id="WEBottom_139" type="car" route="WEBottom" depart="138" departSpeed="5"/>
    <vehicle id="t4_140" type="car" route="t4" depart="138" departSpeed="5"/>
    <vehicle id="t5_141" type="car" route="t5" depart="139" departSpeed="5"/>
    <vehicle id="EWBottom_142" type="car" route="EWBottom" depart="140" departSpeed="5"/>
    <vehicle id="NS_143" type="car" route="NS" depart="141" departSpeed="5"/>
    <vehicle id="t5_144" type="car" route="t5" depart="141" departSpeed="5"/>
    <vehicle id="WETop_145" type="car" route="WETop" depart="142" departSpeed="5"/>
    <vehicle id="t5_146" type="car" route="t5" depart="145" departSpeed="5"/>
    <vehicle id="t5_147" type="car" route="t5" depart="146" departSpeed="5"/>
    <vehicle id="t6_148" type="car" route="t6" depart="146" departSpeed="5"/>
    <vehicle id="WEBottom_149" type="car" route="WEBottom" depart="149" departSpeed="5"/>
    <vehicle id="t5_150" type="car" route="t5" depart="149" departSpeed="5"/>
    <vehicle id="t6_151" type="car" route="t6" depart="149" departSpeed="5"/>
    <vehicle id="WETop_152" type="car" route="WETop" depart="150" departSpeed="5"/>
    <vehicle id="t4_153" type="car" route="t4" depart="150" departSpeed="5"/>
    <vehicle id="EWBottom_154" type="car" route="EWBottom" depart="151" departSpeed="5"/>
    <vehicle id="t6_155" type="car" route="t6" depart="151" departSpeed="5"/>
    <vehicle id="WETop_156" type="car" route="WETop" depart="152" departSpeed="5"/>
    <vehicle id="t6_157" type="car" route="t6" depart="152" departSpeed="5"/>
    <vehicle id="WETop_158" type="car" route="WETop" depart="153" departSpeed="5"/>
    <vehicle id="NS_159" type="car" route="NS" depart="153" departSpeed="5"/>
    <vehicle id="t3_160" type="car" route="t3" depart="153" departSpeed="5"/>
    <vehicle id="EWTop_161" type="car" route="EWTop" depart="154" departSpeed="5"/>
    <vehicle id="WEBottom_162" type="car" route="WEBottom" depart="154" departSpeed="5"/>
    <vehicle id="t3_163" type="car" route="t3" depart="154" departSpeed="5"/>
    <vehicle id="WEBottom_164" type="car" route="WEBottom" depart="156" departSpeed="5"/>
    <vehicle id="EWTop_165" type="car" route="EWTop" depart="158" departSpeed="5"/>
    <vehicle id="SN_166" type="car" route="SN" depart="158" departSpeed="5"/>
    <vehicle id="t4_167" type="car" route="t4" depart="158" departSpeed="5"/>
    <vehicle id="EWBottom_168" type="car" route="EWBottom" depart="161" departSpeed="5"/>
    <vehicle id="t5_169" type="car" route="t5" depart="161" departSpeed="5"/>
    <vehicle id="t2_170" type="car" route="t2" depart="162" departSpeed="5"/>
    <vehicle id="t3_171" type="car" route="t3" depart="162" departSpeed="5"/>
    <vehicle id="WEBottom_172" type="car" route="WEBottom" depart="164" departSpeed="5"/>
    <vehicle id="SN_173" type="car" route="SN" depart="164" departSpeed="5"/>
    <vehicle id="NS_174" type="car" route="NS" depart="165" departSpeed="5"/>
    <vehicle id="t2_175" type="car" route="t2" depart="166" departSpeed="5"/>
    <vehicle id="t4_176" type="car" route="t4" depart="166" departSpeed="5"/>
    <vehicle id="NS_177" type="car" route="NS" depart="167" departSpeed="5"/>
    <vehicle id="t4_178" type="car" route="t4" depart="167" departSpeed="5"/>
    <vehicle id="EWBottom_179" type="car" route="EWBottom" depart="169" departSpeed="5"/>
    <vehicle id="NS_180" type="car" route="NS" depart="169" departSpeed="5"/>
    <vehicle id="EWBottom_181" type="car" route="EWBottom" depart="170" departSpeed="5"/>
    <vehicle id="EWTop_182" type="car" route="EWTop" depart="171" departSpeed="5"/>
    <vehicle id="WEBottom_183" type="car" route="WEBottom" depart="171" departSpeed="5"/>
    <vehicle id="SN_184" type="car" route="SN" depart="171" departSpeed="5"/>
    <vehicle id="t6_185" type="car" route="t6" depart="171" departSpeed="5"/>
    <vehicle id="EWBottom_186" type="car" route="EWBottom" depart="175" departSpeed="5"/>
    <vehicle id="SN_187" type="car" route="SN" depart="175" departSpeed="5"/>
    <vehicle id="t6_188" type="car" route="t6" depart="177" departSpeed="5"/>
    <vehicle id="EWTop_189" type="car" route="EWTop" depart="178" departSpeed="5"/>
    <vehicle id="t4_190" type="car" route="t4" depart="178" departSpeed="5"/>
    <vehicle id="t5_191" type="car" route="t5" depart="178" departSpeed="5"/>
    <vehicle id="WETop_192" type="car" route="WETop" depart="179" departSpeed="5"/>
    <vehicle id="t6_193" type="car" route="t6" depart="179" departSpeed="5"/>
    <vehicle id="WETop_194" type="car" route="WETop" depart="180" departSpeed="5"/>
    <vehicle id="WETop_195" type="car" route="WETop" depart="181" departSpeed="5"/>
    <vehicle id="WEBottom_196" type="car" route="WEBottom" depart="181" departSpeed="5"/>
    <vehicle id="t3_197" type="car" route="t3" depart="181" departSpeed="5"/>
    <vehicle id="EWBottom_198" type="car" route="EWBottom" depart="182" departSpeed="5"/>
    <vehicle id="WETop_199" type="car" route="WETop" depart="183" departSpeed="5"/>
    <vehicle id="t2_200" type="car" route="t2" depart="183" departSpeed="5"/>
    <vehicle id="t5_201" type="car" route="t5" depart="183" departSpeed="5"/>
    <vehicle id="EWBottom_202" type="car" route="EWBottom" depart="185" departSpeed="5"/>
    <vehicle id="t3_203" type="car" route="t3" depart="185" departSpeed="5"/>
    <vehicle id="WEBottom_204" type="car" route="WEBottom" depart="186" departSpeed="5"/>
    <vehicle id="t4_205" type="car" route="t4" depart="186" departSpeed="5"/>
    <vehicle id="EWTop_206" type="car" route="EWTop" depart="187" departSpeed="5"/>
    <vehicle id="t4_207" type="car" route="t4" depart="189" departSpeed="5"/>
    <vehicle id="t6_208" type="car" route="t6" depart="189" departSpeed="5"/>
    <vehicle id="EWTop_209" type="car" route="EWTop" depart="191" departSpeed="5"/>
    <vehicle id="t2_210" type="car" route="t2" depart="191" departSpeed="5"/>
    <vehicle id="t3_211" type="car" route="t3" depart="192" departSpeed="5"/>
    <vehicle id="t5_212" type="car" route="t5" depart="192" departSpeed="5"/>
    <vehicle id="EWBottom_213" type="car" route="EWBottom" depart="193" departSpeed="5"/>
    <vehicle id="NS_214" type="car" route="NS" depart="193" departSpeed="5"/>
    <vehicle id="t2_215" type="car" route="t2" depart="193" departSpeed="5"/>
    <vehicle id="EWBottom_216" type="car" route="EWBottom" depart="195" departSpeed="5"/>
    <vehicle id="t6_217" type="car" route="t6" depart="195" departSpeed="5"/>
    <vehicle id="EWBottom_218" type="car" route="EWBottom" depart="196" departSpeed="5"/>
    <vehicle id="t4_219" type="car" route="t4" depart="197" departSpeed="5"/>
    <vehicle id="WEBottom_220" type="car" route="WEBottom" depart="198" departSpeed="5"/>
    <vehicle id="NS_221" type="car" route="NS" depart="198" departSpeed="5"/>
    <vehicle id="EWTop_222" type="car" route="EWTop" depart="199" departSpeed="5"/>
    <vehicle id="t4_223" type="car" route="t4" depart="199" departSpeed="5"/>
    <vehicle id="t5_224" type="car" route="t5" depart="199" departSpeed="5"/>
    <vehicle id="EWBottom_225" type="car" route="EWBottom" depart="200" departSpeed="5"/>
    <vehicle id="t5_226" type="car" route="t5" depart="200" departSpeed="5"/>
    <vehicle id="t6_227" type="car" route="t6" depart="200" departSpeed="5"/>
    <vehicle id="SN_228" type="car" route="SN" depart="201" departSpeed="5"/>
    <vehicle id="SN_229" type="car" route="SN" depart="202" departSpeed="5"/>
    <vehicle id="t3_230" type="car" route="t3" depart="203" departSpeed="5"/>
    <vehicle id="t2_231" type="car" route="t2" depart="204" departSpeed="5"/>
    <vehicle id="t3_232" type="car" route="t3" depart="204" departSpeed="5"/>
    <vehicle id="WETop_233" type="car" route="WETop" depart="206" departSpeed="5"/>
    <vehicle id="EWBottom_234" type="car" route="EWBottom" depart="206" departSpeed="5"/>
    <vehicle id="t4_235" type="car" route="t4" depart="206" departSpeed="5"/>
    <vehicle id="t5_236" type="car" route="t5" depart="207" departSpeed="5"/>
    <vehicle id="t3_237" type="car" route="t3" depart="208" departSpeed="5"/>
    <vehicle id="t6_238" type="car" route="t6" depart="208" departSpeed="5"/>
    <vehicle id="t6_239" type="car" route="t6" depart="210" departSpeed="5"/>
    <vehicle id="t5_240" type="car" route="t5" depart="211" departSpeed="5"/>
    <vehicle id="EWBottom_241" type="car" route="EWBottom" depart="212" departSpeed="5"/>
    <vehicle id="WEBottom_242" type="car" route="WEBottom" depart="214" departSpeed="5"/>
    <vehicle id="t2_243" type="car" route="t2" depart="214" departSpeed="5"/>
    <vehicle id="t4_244" type="car" route="t4" depart="214" departSpeed="5"/>
    <vehicle id="EWBottom_245" type="car" route="EWBottom" depart="215" departSpeed="5"/>
    <vehicle id="WETop_246" type="car" route="WETop" depart="216" departSpeed="5"/>
    <vehicle id="t4_247" type="car" route="t4" depart="216" departSpeed="5"/>
    <vehicle id="NS_248" type="car" route="NS" depart="217" departSpeed="5"/>
    <vehicle id="t3_249" type="car" route="t3" depart="217" departSpeed="5"/>
    <vehicle id="WETop_250" type="car" route="WETop" depart="222" departSpeed="5"/>
    <vehicle id="t5_251" type="car" route="t5" depart="222" departSpeed="5"/>
    <vehicle id="WEBottom_252" type="car" route="WEBottom" depart="223" departSpeed="5"/>
    <vehicle id="t3_253" type="car" route="t3" depart="223" departSpeed="5"/>
    <vehicle id="SN_254" type="car" route="SN" depart="224" departSpeed="5"/>
    <vehicle id="WEBottom_255" type="car" route="WEBottom" depart="225" departSpeed="5"/>
    <vehicle id="NS_256" type="car" route="NS" depart="226" departSpeed="5"/>
    <vehicle id="t4_257" type="car" route="t4" depart="227" departSpeed="5"/>
    <vehicle id="WETop_258" type="car" route="WETop" depart="228" departSpeed="5"/>
    <vehicle id="t4_259" type="car" route="t4" depart="229" departSpeed="5"/>
    <vehicle id="SN_260" type="car" route="SN" depart="230" departSpeed="5"/>
    <vehicle id="t5_261" type="car" route="t5" depart="230" departSpeed="5"/>
    <vehicle id="WEBottom_262" type="car" route="WEBottom" depart="231" departSpeed="5"/>
    <vehicle id="t5_263" type="car" route="t5" depart="232" departSpeed="5"/>
    <vehicle id="NS_264" type="car" route="NS" depart="235" departSpeed="5"/>
    <vehicle id="t3_265" type="car" route="t3" depart="235" departSpeed="5"/>
    <vehicle id="t5_266" type="car" route="t5" depart="235" departSpeed="5"/>
    <vehicle id="EWTop_267" type="car" route="EWTop" depart="236" departSpeed="5"/>
    <vehicle id="WEBottom_268" type="car" route="WEBottom" depart="236" departSpeed="5"/>
    <vehicle id="EWTop_269" type="car" route="EWTop" depart="237" departSpeed="5"/>
    <vehicle id="t4_270" type="car" route="t4" depart="237" departSpeed="5"/>
    <vehicle id="t6_271" type="car" route="t6" depart="238" departSpeed="5"/>
    <vehicle id="SN_272" type="car" route="SN" depart="240" departSpeed="5"/>
    <vehicle id="t4_273" type="car" route="t4" depart="242" departSpeed="5"/>
    <vehicle id="WEBottom_274" type="car" route="WEBottom" depart="244" departSpeed="5"/>
    <vehicle id="NS_275" type="car" route="NS" depart="244" departSpeed="5"/>
    <vehicle id="t2_276" type="car" route="t2" depart="246" departSpeed="5"/>
    <vehicle id="t5_277" type="car" route="t5" depart="246" departSpeed="5"/>
    <vehicle id="NS_278" type="car" route="NS" depart="247" departSpeed="5"/>
    <vehicle id="WETop_279" type="car" route="WETop" depart="249" departSpeed="5"/>
    <vehicle id="NS_280" type="car" route="NS" depart="249" departSpeed="5"/>
    <vehicle id="EWTop_281" type="car" route="EWTop" depart="250" departSpeed="5"/>
    <vehicle id="SN_282" type="car" route="SN" depart="250" departSpeed="5"/>
    <vehicle id="t2_283" type="car" route="t2" depart="251" departSpeed="5"/>
    <vehicle id="t3_284" type="car" route="t3" depart="251" departSpeed="5"/>
    <vehicle id="WETop_285" type="car" route="WETop" depart="252" departSpeed="5"/>
    <vehicle id="t4_286" type="car" route="t4" depart="253" departSpeed="5"/>
    <vehicle id="t5_287" type="car" route="t5" depart="253" departSpeed="5"/>
    <vehicle id="WEBottom_288" type="car" route="WEBottom" depart="254" departSpeed="5"/>
    <vehicle id="t6_289" type="car" route="t6" depart="254" departSpeed="5"/>
    <vehicle id="t4_290" type="car" route="t4" depart="255" departSpeed="5"/>
    <vehicle id="WETop_291" type="car" route="WETop" depart="256" departSpeed="5"/>
    <vehicle id="t3_292" type="car" route="t3" depart="256" departSpeed="5"/>
    <vehicle id="t5_293" type="car" route="t5" depart="256" departSpeed="5"/>
    <vehicle id="t5_294" type="car" route="t5" depart="257" departSpeed="5"/>
    <vehicle id="EWBottom_295" type="car" route="EWBottom" depart="259" departSpeed="5"/>
    <vehicle id="WEBottom_296" type="car" route="WEBottom" depart="260" departSpeed="5"/>
    <vehicle id="NS_297" type="car" route="NS" depart="260" departSpeed="5"/>
    <vehicle id="t2_298" type="car" route="t2" depart="260" departSpeed="5"/>
    <vehicle id="EWTop_299" type="car" route="EWTop" depart="261" departSpeed="5"/>
    <vehicle id="t5_300" type="car" route="t5" depart="262" departSpeed="5"/>
    <vehicle id="t5_301" type="car" route="t5" depart="264" departSpeed="5"/>
    <vehicle id="t4_302" type="car" route="t4" depart="265" departSpeed="5"/>
    <vehicle id="EWBottom_303" type="car" route="EWBottom" depart="267" departSpeed="5"/>
    <vehicle id="t2_304" type="car" route="t2" depart="267" departSpeed="5"/>
    <vehicle id="WETop_305" type="car" route="WETop" depart="269" departSpeed="5"/>
    <vehicle id="NS_306" type="car" route="NS" depart="272" departSpeed="5"/>
    <vehicle id="SN_307" type="car" route="SN" depart="274" departSpeed="5"/>
    <vehicle id="t6_308" type="car" route="t6" depart="274" departSpeed="5"/>
    <vehicle id="WEBottom_309" type="car" route="WEBottom" depart="276" departSpeed="5"/>
    <vehicle id="SN_310" type="car" route="SN" depart="276" departSpeed="5"/>
    <vehicle id="WETop_311" type="car" route="WETop" depart="277" departSpeed="5"/>
    <vehicle id="t3_312" type="car" route="t3" depart="277" departSpeed="5"/>
    <vehicle id="WEBottom_313" type="car" route="WEBottom" depart="279" departSpeed="5"/>
    <vehicle id="t5_314" type="car" route="t5" depart="280" departSpeed="5"/>
    <vehicle id="t6_315" type="car" route="t6" depart="280" departSpeed="5"/>
    <vehicle id="t6_316" type="car" route="t6" depart="283" departSpeed="5"/>
    <vehicle id="EWTop_317" type="car" route="EWTop" depart="286" departSpeed="5"/>
    <vehicle id="t3_318" type="car" route="t3" depart="286" departSpeed="5"/>
    <vehicle id="t2_319" type="car" route="t2" depart="287" departSpeed="5"/>
    <vehicle id="WETop_320" type="car" route="WETop" depart="289" departSpeed="5"/>
    <vehicle id="t2_321" type="car" route="t2" depart="289" departSpeed="5"/>
    <vehicle id="WETop_322" type="car" route="WETop" depart="290" departSpeed="5"/>
    <vehicle id="t4_323" type="car" route="t4" depart="291" departSpeed="5"/>
    <vehicle id="WETop_324" type="car" route="WETop" depart="292" departSpeed="5"/>
    <vehicle id="EWTop_325" type="car" route="EWTop" depart="292" departSpeed="5"/>
    <vehicle id="EWBottom_326" type="car" route="EWBottom" depart="294" departSpeed="5"/>
    <vehicle id="EWBottom_327" type="car" route="EWBottom" depart="295" departSpeed="5"/>
    <vehicle id="t5_328" type="car" route="t5" depart="295" departSpeed="5"/>
    <vehicle id="EWBottom_329" type="car" route="EWBottom" depart="296" departSpeed="5"/>
    <vehicle id="t2_330" type="car" route="t2" depart="298" departSpeed="5"/>
    <vehicle id="t3_331" type="car" route="t3" depart="299" departSpeed="5"/>
    <vehicle id="NS_332" type="car" route="NS" depart="300" departSpeed="5"/>
    <vehicle id="t6_333" type="car" route="t6" depart="300" departSpeed="5"/>
    <vehicle id="t5_334" type="car" route="t5" depart="304" departSpeed="5"/>
    <vehicle id="EWBottom_335" type="car" route="EWBottom" depart="305" departSpeed="5"/>
    <vehicle id="WETop_336" type="car" route="WETop" depart="306" departSpeed="5"/>
    <vehicle id="EWTop_337" type="car" route="EWTop" depart="306" departSpeed="5"/>
    <vehicle id="t4_338" type="car" route="t4" depart="308" departSpeed="5"/>
    <vehicle id="WETop_339" type="car" route="WETop" depart="310" departSpeed="5"/>
    <vehicle id="WEBottom_340" type="car" route="WEBottom" depart="310" departSpeed="5"/>
    <vehicle id="NS_341" type="car" route="NS" depart="311" departSpeed="5"/>
    <vehicle id="t2_342" type="car" route="t2" depart="312" departSpeed="5"/>
    <vehicle id="t6_343" type="car" route="t6" depart="312" departSpeed="5"/>
    <vehicle id="EWTop_344" type="car" route="EWTop" depart="314" departSpeed="5"/>
    <vehicle id="WEBottom_345" type="car" route="WEBottom" depart="314" departSpeed="5"/>
    <vehicle id="t2_346" type="car" route="t2" depart="314" departSpeed="5"/>
    <vehicle id="t2_347" type="car" route="t2" depart="316" departSpeed="5"/>
    <vehicle id="t5_348" type="car" route="t5" depart="316" departSpeed="5"/>
    <vehicle id="t5_349" type="car" route="t5" depart="317" departSpeed="5"/>
    <vehicle id="EWTop_350" type="car" route="EWTop" depart="318" departSpeed="5"/>
    <vehicle id="t2_351" type="car" route="t2" depart="321" departSpeed="5"/>
    <vehicle id="WETop_352" type="car" route="WETop" depart="323" departSpeed="5"/>
    <vehicle id="NS_353" type="car" route="NS" depart="323" departSpeed="5"/>
    <vehicle id="t2_354" type="car" route="t2" depart="324" departSpeed="5"/>
    <vehicle id="WETop_355" type="car" route="WETop" depart="325" departSpeed="5"/>
    <vehicle id="t5_356" type="car" route="t5" depart="328" departSpeed="5"/>
    <vehicle id="WETop_357" type="car" route="WETop" depart="330" departSpeed="5"/>
    <vehicle id="EWTop_358" type="car" route="EWTop" depart="331" departSpeed="5"/>
    <vehicle id="SN_359" type="car" route="SN" depart="332" departSpeed="5"/>