<routes>
                               <vType id="car" accel="1.0" decel="4.5" sigma="0.7" length="5" minGap="3" maxSpeed="15" guiShape="passenger"/>

                               <route id="WETop" edges="5i 1i 2o" />
                               <route id="EWTop" edges="2i 1o 5o" />
                               <route id="NS" edges="4i 3o 8i" />
                               <route id="SN" edges="8o 3i 4o" />
                               <route id="WEBottom" edges="9o 7o 11o" />
                               <route id="EWBottom" edges="11i 7i 9i" />

                               <route id="t1" edges="6o 1i 3o 11o" />
                               <route id="t2" edges="8o 7i 10i" />
                               <route id="t3" edges="4i 1o 6i" />
                               <route id="t4" edges="10o 7o 11o" />

                               <route id="t5" edges="9o 7o 8i" />
                               <route id="t6" edges="9o 10i" />
                               <route id="t7" edges="6o 5o" />
                               <route id="t8" edges="4i 3o 11o" />
                               <route id="t9" edges="9o 7o 3i 1o 6i" />
                               
    <vehicle id="t8_0" type="car" route="t8" depart="0" departSpeed="5"/>
    <vehicle id="t4_1" type="car" route="t4" depart="1" departSpeed="5"/>
    <vehicle id="t5_2" type="car" route="t5" depart="1" departSpeed="5"/>
    <vehicle id="SN_3" type="car" route="SN" depart="2" departSpeed="5"/>
    <vehicle id="EWBottom_4" type="car" route="EWBottom" depart="4" departSpeed="5"/>
    <vehicle id="t2_5" type="car" route="t2" depart="4" departSpeed="5"/>
    <vehicle id="t4_6" type="car" route="t4" depart="4" departSpeed="5"/>
    <vehicle id="t5_7" type="car" route="t5" depart="4" departSpeed="5"/>
    <vehicle id="t6_8" type="car" route="t6" depart="4" departSpeed="5"/>
    <vehicle id="NS_9" type="car" route="NS" depart="5" departSpeed="5"/>
    <vehicle id="t1_10" type="car" route="t1" depart="5" departSpeed="5"/>
    <vehicle id="t6_11" type="car" route="t6" depart="5" departSpeed="5"/>
    <vehicle id="SN_12" type="car" route="SN" depart="6" departSpeed="5"/>
    <vehicle id="t6_13" type="car" route="t6" depart="6" departSpeed="5"/>
    <vehicle id="t3_14" type="car" route="t3" depart="8" departSpeed="5"/>
    <vehicle id="t6_15" type="car" route="t6" depart="9" departSpeed="5"/>
    <vehicle id="EWBottom_16" type="car" route="EWBottom" depart="10" departSpeed="5"/>
    <vehicle id="NS_17" type="car" route="NS" depart="10" departSpeed="5"/>
    <vehicle id="t6_18" type="car" route="t6" depart="10" departSpeed="5"/>
    <vehicle id="t3_19" type="car" route="t3" depart="11" departSpeed="5"/>
    <vehicle id="t7_20" type="car" route="t7" depart="11" departSpeed="5"/>
    <vehicle id="WEBottom_21" type="car" route="WEBottom" depart="13" departSpeed="5"/>
    <vehicle id="SN_22" type="car" route="SN" depart="14" departSpeed="5"/>
    <vehicle id="t6_23" type="car" route="t6" depart="14" departSpeed="5"/>
    <vehicle id="WETop_24" type="car" route="WETop" depart="15" departSpeed="5"/>
    <vehicle id="t6_25" type="car" route="t6" depart="15" departSpeed="5"/>
    <vehicle id="t1_26" type="car" route="t1" depart="17" departSpeed="5"/>
    <vehicle id="t8_27" type="car" route="t8" depart="17" departSpeed="5"/>
    <vehicle id="WEBottom_28" type="car" route="WEBottom" depart="18" departSpeed="5"/>
    <vehicle id="SN_29" type="car" route="SN" depart="18" departSpeed="5"/>
    <vehicle id="t6_30" type="car" route="t6" depart="18" departSpeed="5"/>
    <vehicle id="t6_31" type="car" route="t6" depart="18" departSpeed="5"/>
    <vehicle id="t7_32" type="car" route="t7" depart="18" departSpeed="5"/>
    <vehicle id="EWTop_33" type="car" route="EWTop" depart="19" departSpeed="5"/>
    <vehicle id="WEBottom_34" type="car" route="WEBottom" depart="19" departSpeed="5"/>
    <vehicle id="t6_35" type="car" route="t6" depart="20" departSpeed="5"/>
    <vehicle id="t2_36" type="car" route="t2" depart="21" departSpeed="5"/>
    <vehicle id="t9_37" type="car" route="t9" depart="21" departSpeed="5"/>
    <vehicle id="t1_38" type="car" route="t1" depart="22" departSpeed="5"/>
    <vehicle id="t7_39" type="car" route="t7" depart="22" departSpeed="5"/>
    <vehicle id="t6_40" type="car" route="t6" depart="24" departSpeed="5"/>
    <vehicle id="NS_41" type="car" route="NS" depart="25" departSpeed="5"/>
    <vehicle id="t3_42" type="car" route="t3" depart="25" departSpeed="5"/>
    <vehicle id="SN_43" type="car" route="SN" depart="27" departSpeed="5"/>
    <vehicle id="t9_44" type="car" route="t9" depart="29" departSpeed="5"/>
    <vehicle id="t3_45" type="car" route="t3" depart="30" departSpeed="5"/>
    <vehicle id="t1_46" type="car" route="t1" depart="32" departSpeed="5"/>
    <vehicle id="t8_47" type="car" route="t8" depart="33" departSpeed="5"/>
    <vehicle id="t9_48" type="car" route="t9" depart="34" departSpeed="5"/>
    <vehicle id="WETop_49" type="car" route="WETop" depart="36" departSpeed="5"/>
    <vehicle id="WEBottom_50" type="car" route="WEBottom" depart="36" departSpeed="5"/>
    <vehicle id="t6_51" type="car" route="t6" depart="36" departSpeed="5"/>
    <vehicle id="t9_52" type="car" route="t9" depart="36" departSpeed="5"/>
    <vehicle id="t1_53" type="car" route="t1" depart="37" departSpeed="5"/>
    <vehicle id="t9_54" type="car" route="t9" depart="37" departSpeed="5"/>
    <vehicle id="t3_55" type="car" route="t3" depart="38" departSpeed="5"/>
    <vehicle id="t7_56" type="car" route="t7" depart="39" departSpeed="5"/>
    <vehicle id="t9_57" type="car" route="t9" depart="40" departSpeed="5"/>
    <vehicle id="EWTop_58" type="car" route="EWTop" depart="41" departSpeed="5"/>
    <vehicle id="t2_59" type="car" route="t2" depart="41" departSpeed="5"/>
    <vehicle id="t6_60" type="car" route="t6" depart="41" departSpeed="5"/>
    <vehicle id="WETop_61" type="car" route="WETop" depart="42" departSpeed="5"/>
    <vehicle id="t7_62" type="car" route="t7" depart="42" departSpeed="5"/>
    <vehicle id="t9_63" type="car" route="t9" depart="42" departSpeed="5"/>
    <vehicle id="t2_64" type="car" route="t2" depart="43" departSpeed="5"/>
    <vehicle id="t6_65" type="car" route="t6" depart="44" departSpeed="5"/>
    <vehicle id="WEBottom_66" type="car" route="WEBottom" depart="45" departSpeed="5"/>
    <vehicle id="t3_67" type="car" route="t3" depart="45" departSpeed="5"/>
    <vehicle id="t9_68" type="car" route="t9" depart="45" departSpeed="5"/>
    <vehicle id="NS_69" type="car" route="NS" depart="47" departSpeed="5"/>
    <vehicle id="t1_70" type="car" route="t1" depart="47" departSpeed="5"/>
    <vehicle id="t2_71" type="car" route="t2" depart="48" departSpeed="5"/>
    <vehicle id="t6_72" type="car" route="t6" depart="48" departSpeed="5"/>
    <vehicle id="WEBottom_73" type="car" route="WEBottom" depart="49" departSpeed="5"/>
    <vehicle id="EWBottom_74" type="car" route="EWBottom" depart="49" departSpeed="5"/>
    <vehicle id="NS_75" type="car" route="NS" depart="49" departSpeed="5"/>
    <vehicle id="WEBottom_76" type="car" route="WEBottom" depart="51" departSpeed="5"/>
    <vehicle id="SN_77" type="car" route="SN" depart="51" departSpeed="5"/>
    <vehicle id="t6_78" type="car" route="t6" depart="52" departSpeed="5"/>
    <vehicle id="EWBottom_79" type="car" route="EWBottom" depart="53" departSpeed="5"/>
    <vehicle id="t2_80" type="car" route="t2" depart="53" departSpeed="5"/>
    <vehicle id="t3_81" type="car" route="t3" depart="54" departSpeed="5"/>
    <vehicle id="t4_82" type="car" route="t4" depart="54" departSpeed="5"/>
    <vehicle id="t5_83" type="car" route="t5" depart="54" departSpeed="5"/>
    <vehicle id="t8_84" type="car" route="t8" depart="54" departSpeed="5"/>
    <vehicle id="NS_85" type="car" route="NS" depart="55" departSpeed="5"/>
    <vehicle id="t4_86" type="car" route="t4" depart="55" departSpeed="5"/>
    <vehicle id="t5_87" type="car" route="t5" depart="55" departSpeed="5"/>
    <vehicle id="t6_88" type="car" route="t6" depart="56" departSpeed="5"/>
    <vehicle id="NS_89" type="car" route="NS" depart="57" departSpeed="5"/>
    <vehicle id="t6_90" type="car" route="t6" depart="57" departSpeed="5"/>
    <vehicle id="t8_91" type="car" route="t8" depart="59" departSpeed="5"/>
    <vehicle id="EWTop_92" type="car" route="EWTop" depart="60" departSpeed="5"/>
    <vehicle id="t1_93" type="car" route="t1" depart="60" departSpeed="5"/>
    <vehicle id="WETop_94" type="car" route="WETop" depart="61" departSpeed="5"/>
    <vehicle id="SN_95" type="car" route="SN" depart="61" departSpeed="5"/>
    <vehicle id="t6_96" type="car" route="t6" depart="61" departSpeed="5"/>
    <vehicle id="t8_97" type="car" route="t8" depart="61" departSpeed="5"/>
    <vehicle id="EWTop_98" type="car" route="EWTop" depart="62" departSpeed="5"/>
    <vehicle id="EWTop_99" type="car" route="EWTop" depart="63" departSpeed="5"/>
    <vehicle id="t2_100" type="car" route="t2" depart="63" departSpeed="5"/>
    <vehicle id="EWTop_101" type="car" route="EWTop" depart="64" departSpeed="5"/>
    <vehicle id="t1_102" type="car" route="t1" depart="64" departSpeed="5"/>
    <vehicle id="t9_103" type="car" route="t9" depart="64" departSpeed="5"/>
    <vehicle id="t8_104" type="car" route="t8" depart="65" departSpeed="5"/>
    <vehicle id="WETop_105" type="car" route="WETop" depart="66" departSpeed="5"/>
    <vehicle id="t3_106" type="car" route="t3" depart="66" departSpeed="5"/>
    <vehicle id="WETop_107" type="car" route="WETop" depart="67" departSpeed="5"/>
    <vehicle id="t8_108" type="car" route="t8" depart="67" departSpeed="5"/>
    <vehicle id="t3_109" type="car" route="t3" depart="68" departSpeed="5"/>
    <vehicle id="EWTop_110" type="car" route="EWTop" depart="69" departSpeed="5"/>
    <vehicle id="t7_111" type="car" route="t7" depart="69" departSpeed="5"/>
    <vehicle id="t2_112" type="car" route="t2" depart="70" departSpeed="5"/>
    <vehicle id="t6_113" type="car" route="t6" depart="70" departSpeed="5"/>
    <vehicle id="t8_114" type="car" route="t8" depart="70" departSpeed="5"/>
    <vehicle id="WEBottom_115" type="car" route="WEBottom" depart="71" departSpeed="5"/>
    <vehicle id="t6_116" type="car" route="t6" depart="71" departSpeed="5"/>
    <vehicle id="NS_117" type="car" route="NS" depart="72" departSpeed="5"/>
    <vehicle id="t1_118" type="car" route="t1" depart="72" departSpeed="5"/>
    <vehicle id="NS_119" type="car" route="NS" depart="73" departSpeed="5"/>
    <vehicle id="t7_120" type="car" route="t7" depart="73" departSpeed="5"/>
    <vehicle id="WEBottom_121" type="car" route="WEBottom" depart="74" departSpeed="5"/>
    <vehicle id="SN_122" type="car" route="SN" depart="74" departSpeed="5"/>
    <vehicle id="t1_123" type="car" route="t1" depart="74" departSpeed="5"/>
    <vehicle id="EWTop_124" type="car" route="EWTop" depart="76" departSpeed="5"/>
    <vehicle id="t6_125" type="car" route="t6" depart="76" departSpeed="5"/>
    <vehicle id="EWBottom_126" type="car" route="EWBottom" depart="77" departSpeed="5"/>
    <vehicle id="t6_127" type="car" route="t6" depart="77" departSpeed="5"/>
    <vehicle id="t9_128" type="car" route="t9" depart="77" departSpeed="5"/>
    <vehicle id="t4_129" type="car" route="t4" depart="80" departSpeed="5"/>
    <vehicle id="t5_130" type="car" route="t5" depart="80" departSpeed="5"/>
    <vehicle id="EWBottom_131" type="car" route="EWBottom" depart="81" departSpeed="5"/>
    <vehicle id="EWBottom_132" type="car" route="EWBottom" depart="82" departSpeed="5"/>
    <vehicle id="t3_133" type="car" route="t3" depart="84" departSpeed="5"/>
    <vehicle id="t7_134" type="car" route="t7" depart="85" departSpeed="5"/>
    <vehicle id="t8_135" type="car" route="t8" depart="85" departSpeed="5"/>
    <vehicle id="t9_136" type="car" route="t9" depart="85" departSpeed="5"/>
    <vehicle id="NS_137" type="car" route="NS" depart="87" departSpeed="5"/>
    <vehicle id="t6_138" type="car" route="t6" depart="87" departSpeed="5"/>
    <vehicle id="t8_139" type="car" route="t8" depart="88" departSpeed="5"/>
    <vehicle id="t4_140" type="car" route="t4" depart="90" departSpeed="5"/>
    <vehicle id="t5_141" type="car" route="t5" depart="90" departSpeed="5"/>
    <vehicle id="t6_142" type="car" route="t6" depart="90" departSpeed="5"/>
    <vehicle id="SN_143" type="car" route="SN" depart="91" departSpeed="5"/>
    <vehicle id="t3_144" type="car" route="t3" depart="91" departSpeed="5"/>
    <vehicle id="NS_145" type="car" route="NS" depart="92" departSpeed="5"/>
    <vehicle id="WETop_146" type="car" route="WETop" depart="93" departSpeed="5"/>
    <vehicle id="EWBottom_147" type="car" route="EWBottom" depart="94" departSpeed="5"/>
    <vehicle id="t6_148" type="car" route="t6" depart="94" departSpeed="5"/>
    <vehicle id="t1_149" type="car" route="t1" depart="97" departSpeed="5"/>
    <vehicle id="EWBottom_150" type="car" route="EWBottom" depart="98" departSpeed="5"/>
    <vehicle id="NS_151" type="car" route="NS" depart="98" departSpeed="5"/>
    <vehicle id="t6_152" type="car" route="t6" depart="98" departSpeed="5"/>
    <vehicle id="EWTop_153" type="car" route="EWTop" depart="99" departSpeed="5"/>
    <vehicle id="t1_154" type="car" route="t1" depart="99" departSpeed="5"/>
    <vehicle id="t1_155" type="car" route="t1" depart="101" departSpeed="5"/>
    <vehicle id="t6_156" type="car" route="t6" depart="102" departSpeed="5"/>
    <vehicle id="t7_157" type="car" route="t7" depart="103" departSpeed="5"/>
    <vehicle id="EWBottom_158" type="car" route="EWBottom" depart="104" departSpeed="5"/>
    <vehicle id="t9_159" type="car" route="t9" depart="105" departSpeed="5"/>
    <vehicle id="t2_160" type="car" route="t2" depart="106" departSpeed="5"/>
    <vehicle id="WEBottom_161" type="car" route="WEBottom" depart="107" departSpeed="5"/>
    <vehicle id="t4_162" type="car" route="t4" depart="107" departSpeed="5"/>
    <vehicle id="t5_163" type="car" route="t5" depart="107" departSpeed="5"/>
    <vehicle id="t1_164" type="car" route="t1" depart="109" departSpeed="5"/>
    <vehicle id="t6_165" type="car" route="t6" depart="110" departSpeed="5"/>
    <vehicle id="t9_166" type="car" route="t9" depart="111" departSpeed="5"/>
    <vehicle id="EWTop_167" type="car" route="EWTop" depart="113" departSpeed="5"/>
    <vehicle id="SN_168" type="car" route="SN" depart="113" departSpeed="5"/>
    <vehicle id="t6_169" type="car" route="t6" depart="113" departSpeed="5"/>
    <vehicle id="t9_170" type="car" route="t9" depart="114" departSpeed="5"/>
    <vehicle id="NS_171" type="car" route="NS" depart="115" departSpeed="5"/>
    <vehicle id="EWTop_172" type="car" route="EWTop" depart="116" departSpeed="5"/>
    <vehicle id="WEBottom_173" type="car" route="WEBottom" depart="116" departSpeed="5"/>
    <vehicle id="EWBottom_174" type="car" route="EWBottom" depart="116" departSpeed="5"/>
    <vehicle id="t8_175" type="car" route="t8" depart="117" departSpeed="5"/>
    <vehicle id="NS_176" type="car" route="NS" depart="119" departSpeed="5"/>
    <vehicle id="t4_177" type="car" route="t4" depart="119" departSpeed="5"/>
    <vehicle id="t5_178" type="car" route="t5" depart="119" departSpeed="5"/>
    <vehicle id="t1_179" type="car" route="t1" depart="120" departSpeed="5"/>
    <vehicle id="WETop_180" type="car" route="WETop" depart="121" departSpeed="5"/>
    <vehicle id="t6_181" type="car" route="t6" depart="121" departSpeed="5"/>
    <vehicle id="t2_182" type="car" route="t2" depart="122" departSpeed="5"/>
    <vehicle id="t2_183" type="car" route="t2" depart="123" departSpeed="5"/>
    <vehicle id="t8_184" type="car" route="t8" depart="123" departSpeed="5"/>
    <vehicle id="EWBottom_185" type="car" route="EWBottom" depart="125" departSpeed="5"/>
    <vehicle id="NS_186" type="car" route="NS" depart="126" departSpeed="5"/>
    <vehicle id="t9_187" type="car" route="t9" depart="126" departSpeed="5"/>
    <vehicle id="EWBottom_188" type="car" route="EWBottom" depart="127" departSpeed="5"/>
    <vehicle id="WEBottom_189" type="car" route="WEBottom" depart="128" departSpeed="5"/>
    <vehicle id="SN_190" type="car" route="SN" depart="129" departSpeed="5"/>
    <vehicle id="t6_191" type="car" route="t6" depart="130" departSpeed="5"/>
    <vehicle id="WEBottom_192" type="car" route="WEBottom" depart="131" departSpeed="5"/>
    <vehicle id="t3_193" type="car" route="t3" depart="131" departSpeed="5"/>
    <vehicle id="WETop_194" type="car" route="WETop" depart="133" departSpeed="5"/>
    <vehicle id="SN_195" type="car" route="SN" depart="133" departSpeed="5"/>
    <vehicle id="t6_196" type="car" route="t6" depart="133" departSpeed="5"/>
    <vehicle id="t6_197" type="car" route="t6" depart="134" departSpeed="5"/>
    <vehicle id="t8_198" type="car" route="t8" depart="134" departSpeed="5"/>
    <vehicle id="t9_199" type="car" route="t9" depart="134" departSpeed="5"/>
    <vehicle id="t2_200" type="car" route="t2" depart="135" departSpeed="5"/>
    <vehicle id="t6_201" type="car" route="t6" depart="135" departSpeed="5"/>
    <vehicle id="SN_202" type="car" route="SN" depart="136" departSpeed="5"/>
    <vehicle id="t6_203" type="car" route="t6" depart="136" departSpeed="5"/>
    <vehicle id="EWBottom_204" type="car" route="EWBottom" depart="138" departSpeed="5"/>
    <vehicle id="t1_205" type="car" route="t1" depart="138" departSpeed="5"/>
    <vehicle id="t8_206" type="car" route="t8" depart="138" departSpeed="5"/>
    <vehicle id="t9_207" type="car" route="t9" depart="138" departSpeed="5"/>
    <vehicle id="t4_208" type="car" route="t4" depart="139" departSpeed="5"/>
    <vehicle id="t5_209" type="car" route="t5" depart="139" departSpeed="5"/>
    <vehicle id="t6_210" type="car" route="t6" depart="139" departSpeed="5"/>
    <vehicle id="WETop_211" type="car" route="WETop" depart="140" departSpeed="5"/>
    <vehicle id="EWBottom_212" type="car" route="EWBottom" depart="140" departSpeed="5"/>
    <vehicle id="t6_213" type="car" route="t6" depart="140" departSpeed="5"/>
    <vehicle id="t8_214" type="car" route="t8" depart="140" departSpeed="5"/>
    <vehicle id="WETop_215" type="car" route="WETop" depart="141" departSpeed="5"/>
    <vehicle id="t4_216" type="car" route="t4" depart="141" departSpeed="5"/>
    <vehicle id="t5_217" type="car" route="t5" depart="141" departSpeed="5"/>
    <vehicle id="t6_218" type="car" route="t6" depart="141" departSpeed="5"/>
    <vehicle id="t7_219" type="car" route="t7" depart="141" departSpeed="5"/>
    <vehicle id="t6_220" type="car" route="t6" depart="142" departSpeed="5"/>
    <vehicle id="EWTop_221" type="car" route="EWTop" depart="143" departSpeed="5"/>
    <vehicle id="t3_222" type="car" route="t3" depart="143" departSpeed="5"/>
    <vehicle id="EWTop_223" type="car" route="EWTop" depart="145" departSpeed="5"/>
    <vehicle id="WEBottom_224" type="car" route="WEBottom" depart="145" departSpeed="5"/>
    <vehicle id="t1_225" type="car" route="t1" depart="145" departSpeed="5"/>
    <vehicle id="t4_226" type="car" route="t4" depart="145" departSpeed="5"/>
    <vehicle id="t5_227" type="car" route="t5" depart="145" departSpeed="5"/>
    <vehicle id="t6_228" type="car" route="t6" depart="146" departSpeed="5"/>
    <vehicle id="EWTop_229" type="car" route="EWTop" depart="147" departSpeed="5"/>
    <vehicle id="t4_230" type="car" route="t4" depart="147" departSpeed="5"/>
    <vehicle id="t5_231" type="car" route="t5" depart="147" departSpeed="5"/>
    <vehicle id="t6_232" type="car" route="t6" depart="147" departSpeed="5"/>
    <vehicle id="WETop_233" type="car" route="WETop" depart="148" departSpeed="5"/>
    <vehicle id="WEBottom_234" type="car" route="WEBottom" depart="150" departSpeed="5"/>
    <vehicle id="WEBottom_235" type="car" route="WEBottom" depart="151" departSpeed="5"/>
    <vehicle id="t1_236" type="car" route="t1" depart="152" departSpeed="5"/>
    <vehicle id="t4_237" type="car" route="t4" depart="152" departSpeed="5"/>
    <vehicle id="t5_238" type="car" route="t5" depart="152" departSpeed="5"/>
    <vehicle id="t6_239" type="car" route="t6" depart="152" departSpeed="5"/>
    <vehicle id="NS_240" type="car" route="NS" depart="153" departSpeed="5"/>
    <vehicle id="SN_241" type="car" route="SN" depart="154" departSpeed="5"/>
    <vehicle id="t6_242" type="car" route="t6" depart="154" departSpeed="5"/>
    <vehicle id="NS_243" type="car" route="NS" depart="155" departSpeed="5"/>
    <vehicle id="SN_244" type="car" route="SN" depart="155" departSpeed="5"/>
    <vehicle id="NS_245" type="car" route="NS" depart="156" departSpeed="5"/>
    <vehicle id="EWBottom_246" type="car" route="EWBottom" depart="157" departSpeed="5"/>
    <vehicle id="WETop_247" type="car" route="WETop" depart="159" departSpeed="5"/>
    <vehicle id="EWBottom_248" type="car" route="EWBottom" depart="159" departSpeed="5"/>
    <vehicle id="NS_249" type="car" route="NS" depart="159" departSpeed="5"/>
    <vehicle id="WEBottom_250" type="car" route="WEBottom" depart="160" departSpeed="5"/>
    <vehicle id="t2_251" type="car" route="t2" depart="160" departSpeed="5"/>
    <vehicle id="WEBottom_252" type="car" route="WEBottom" depart="161" departSpeed="5"/>
    <vehicle id="NS_253" type="car" route="NS" depart="161" departSpeed="5"/>
    <vehicle id="t1_254" type="car" route="t1" depart="161" departSpeed="5"/>
    <vehicle id="WETop_255" type="car" route="WETop" depart="162" departSpeed="5"/>
    <vehicle id="EWTop_256" type="car" route="EWTop" depart="162" departSpeed="5"/>
    <vehicle id="t7_257" type="car" route="t7" depart="162" departSpeed="5"/>
    <vehicle id="WEBottom_258" type="car" route="WEBottom" depart="163" departSpeed="5"/>
    <vehicle id="NS_259" type="car" route="NS" depart="163" departSpeed="5"/>
    <vehicle id="EWTop_260" type="car" route="EWTop" depart="164" departSpeed="5"/>
    <vehicle id="t6_261" type="car" route="t6" depart="164" departSpeed="5"/>
    <vehicle id="t9_262" type="car" route="t9" depart="164" departSpeed="5"/>
    <vehicle id="EWTop_263" type="car" route="EWTop" depart="165" departSpeed="5"/>
    <vehicle id="t2_264" type="car" route="t2" depart="165" departSpeed="5"/>
    <vehicle id="t3_265" type="car" route="t3" depart="165" departSpeed="5"/>
    <vehicle id="t1_266" type="car" route="t1" depart="166" departSpeed="5"/>
    <vehicle id="WEBottom_267" type="car" route="WEBottom" depart="167" departSpeed="5"/>
    <vehicle id="EWBottom_268" type="car" route="EWBottom" depart="167" departSpeed="5"/>
    <vehicle id="t1_269" type="car" route="t1" depart="167" departSpeed="5"/>
    <vehicle id="SN_270" type="car" route="SN" depart="168" departSpeed="5"/>
    <vehicle id="t7_271" type="car" route="t7" depart="168" departSpeed="5"/>
    <vehicle id="SN_272" type="car" route="SN" depart="169" departSpeed="5"/>
    <vehicle id="WEBottom_273" type="car" route="WEBottom" depart="170" departSpeed="5"/>
    <vehicle id="t1_274" type="car" route="t1" depart="170" departSpeed="5"/>
    <vehicle id="t9_275" type="car" route="t9" depart="170" departSpeed="5"/>
    <vehicle id="t6_276" type="car" route="t6" depart="172" departSpeed="5"/>
    <vehicle id="EWTop_277" type="car" route="EWTop" depart="173" departSpeed="5"/>
    <vehicle id="t4_278" type="car" route="t4" depart="173" departSpeed="5"/>
    <vehicle id="t5_279" type="car" route="t5" depart="173" departSpeed="5"/>
    <vehicle id="t3_280" type="car" route="t3" depart="174" departSpeed="5"/>
    <vehicle id="SN_281" type="car" route="SN" depart="177" departSpeed="5"/>
    <vehicle id="t8_282" type="car" route="t8" depart="178" departSpeed="5"/>
    <vehicle id="WEBottom_283" type="car" route="WEBottom" depart="179" departSpeed="5"/>
    <vehicle id="NS_284" type="car" route="NS" depart="179" departSpeed="5"/>
    <vehicle id="WEBottom_285" type="car" route="WEBottom" depart="180" departSpeed="5"/>
    <vehicle id="NS_286" type="car" route="NS" depart="180" departSpeed="5"/>
    <vehicle id="EWBottom_287" type="car" route="EWBottom" depart="181" departSpeed="5"/>
    <vehicle id="t6_288" type="car" route="t6" depart="181" departSpeed="5"/>
    <vehicle id="WETop_289" type="car" route="WETop" depart="182" departSpeed="5"/>
    <vehicle id="EWTop_290" type="car" route="EWTop" depart="182" departSpeed="5"/>
    <vehicle id="EWTop_291" type="car" route="EWTop" depart="183" departSpeed="5"/>
    <vehicle id="t6_292" type="car" route="t6" depart="183" departSpeed="5"/>
    <vehicle id="WETop_293" type="car" route="WETop" depart="185" departSpeed="5"/>
    <vehicle id="SN_294" type="car" route="SN" depart="185" departSpeed="5"/>
    <vehicle id="t6_295" type="car" route="t6" depart="186" departSpeed="5"/>
    <vehicle id="t7_296" type="car" route="t7" depart="186" departSpeed="5"/>
    <vehicle id="t8_297" type="car" route="t8" depart="186" departSpeed="5"/>
    <vehicle id="WETop_298" type="car" route="WETop" depart="187" departSpeed="5"/>
    <vehicle id="t6_299" type="car" route="t6" depart="187" departSpeed="5"/>
    <vehicle id="EWTop_300" type="car" route="EWTop" depart="189" departSpeed="5"/>
    <vehicle id="t3_301" type="car" route="t3" depart="189" departSpeed="5"/>
    <vehicle id="t3_302" type="car" route="t3" depart="190" departSpeed="5"/>
    <vehicle id="t6_303" type="car" route="t6" depart="190" departSpeed="5"/>
    <vehicle id="t2_304" type="car" route="t2" depart="191" departSpeed="5"/>
    <vehicle id="SN_305" type="car" route="SN" depart="192" departSpeed="5"/>
    <vehicle id="t2_306" type="car" route="t2" depart="192" departSpeed="5"/>
    <vehicle id="t8_307" type="car" route="t8" depart="192" departSpeed="5"/>
    <vehicle id="WEBottom_308" type="car" route="WEBottom" depart="194" departSpeed="5"/>
    <vehicle id="SN_309" type="car" route="SN" depart="194" departSpeed="5"/>
    <vehicle id="t1_310" type="car" route="t1" depart="194" departSpeed="5"/>
    <vehicle id="t2_311" type="car" route="t2" depart="194" departSpeed="5"/>
    <vehicle id="EWBottom_312" type="car" route="EWBottom" depart="196" departSpeed="5"/>
    <vehicle id="t3_313" type="car" route="t3" depart="196" departSpeed="5"/>
    <vehicle id="t9_314" type="car" route="t9" depart="197" departSpeed="5"/>
    <vehicle id="t3_315" type="car" route="t3" depart="198" departSpeed="5"/>
    <vehicle id="t8_316" type="car" route="t8" depart="198" departSpeed="5"/>
    <vehicle id="WEBottom_317" type="car" route="WEBottom" depart="199" departSpeed="5"/>
    <vehicle id="t7_318" type="car" route="t7" depart="199" departSpeed="5"/>
    <vehicle id="WETop_319" type="car" route="WETop" depart="200" departSpeed="5"/>
    <vehicle id="NS_320" type="car" route="NS" depart="200" departSpeed="5"/>
    <vehicle id="t2_321" type="car" route="t2" depart="200" departSpeed="5"/>
    <vehicle id="EWBottom_322" type="car" route="EWBottom" depart="201" departSpeed="5"/>
    <vehicle id="NS_323" type="car" route="NS" depart="201" departSpeed="5"/>
    <vehicle id="WEBottom_324" type="car" route="WEBottom" depart="202" departSpeed="5"/>
    <vehicle id="NS_325" type="car" route="NS" depart="202" departSpeed="5"/>
    <vehicle id="t1_326" type="car" route="t1" depart="202" departSpeed="5"/>
    <vehicle id="t6_327" type="car" route="t6" depart="203" departSpeed="5"/>
    <vehicle id="t9_328" type="car" route="t9" depart="203" departSpeed="5"/>
    <vehicle id="t6_329" type="car" route="t6" depart="204" departSpeed="5"/>
    <vehicle id="t7_330" type="car" route="t7" depart="204" departSpeed="5"/>
    <vehicle id="NS_331" type="car" route="NS" depart="205" departSpeed="5"/>
    <vehicle id="t2_332" type="car" route="t2" depart="205" departSpeed="5"/>
    <vehicle id="t6_333" type="car" route="t6" depart="206" departSpeed="5"/>
    <vehicle id="SN_334" type="car" route="SN" depart="208" departSpeed="5"/>
    <vehicle id="WEBottom_335" type="car" route="WEBottom" depart="209" departSpeed="5"/>
    <vehicle id="SN_336" type="car" route="SN" depart="209" departSpeed="5"/>
    <vehicle id="WETop_337" type="car" route="WETop" depart="210" departSpeed="5"/>
    <vehicle id="WETop_338" type="car" route="WETop" depart="211" departSpeed="5"/>
    <vehicle id="EWBottom_339" type="car" route="EWBottom" depart="212" departSpeed="5"/>
    <vehicle id="t2_340" type="car" route="t2" depart="215" departSpeed="5"/>
    <vehicle id="t9_341" type="car" route="t9" depart="215" departSpeed="5"/>
    <vehicle id="EWTop_342" type="car" route="EWTop" depart="216" departSpeed="5"/>
    <vehicle id="NS_343" type="car" route="NS" depart="216" departSpeed="5"/>
    <vehicle id="t8_344" type="car" route="t8" depart="216" departSpeed="5"/>
    <vehicle id="EWBottom_345" type="car" route="EWBottom" depart="217" departSpeed="5"/>
    <vehicle id="EWBottom_346" type="car" route="EWBottom" depart="219" departSpeed="5"/>
    <vehicle id="SN_347" type="car" route="SN" depart="220" departSpeed="5"/>
    <vehicle id="t6_348" type="car" route="t6" depart="222" departSpeed="5"/>
    <vehicle id="t6_349" type="car" route="t6" depart="224" departSpeed="5"/>
    <vehicle id="SN_350" type="car" route="SN" depart="225" departSpeed="5"/>
    <vehicle id="WEBottom_351" type="car" route="WEBottom" depart="228" departSpeed="5"/>
    <vehicle id="t2_352" type="car" route="t2" depart="228" departSpeed="5"/>
    <vehicle id="t4_353" type="car" route="t4" depart="228" departSpeed="5"/>
    <vehicle id="t5_354" type="car" route="t5" depart="228" departSpeed="5"/>
    <vehicle id="t7_355" type="car" route="t7" depart="228" departSpeed="5"/>
    <vehicle id="EWTop_356" type="car" route="EWTop" depart="229" departSpeed="5"/>
    <vehicle id="NS_357" type="car" route="NS" depart="229" departSpeed="5"/>
    <vehicle id="t3_358" type="car" route="t3" depart="229" departSpeed="5"/>
    <vehicle id="WETop_359" type="car" route="WETop" depart="230" departSpeed="5"/>
    <vehicle id="SN_360" type="car" route="SN" depart="230" departSpeed="5"/>