<routes>
            <vType id="car" accel="1.0" decel="4.5" sigma="0.7" length="5" minGap="3" maxSpeed="15" guiShape="passenger"/>

            <route id="right" edges="1i 2o" />
            <route id="left" edges="2i 1o" />
            <route id="down" edges="4i 3o" />
            <route id="up" edges="3i 4o" />
    <vehicle id="left_0" type="car" route="left" depart="0" departSpeed="5"/>
    <vehicle id="right_1" type="car" route="right" depart="1" departSpeed="5"/>
    <vehicle id="up_2" type="car" route="up" depart="2" departSpeed="5"/>
    <vehicle id="left_3" type="car" route="left" depart="7" departSpeed="5"/>
    <vehicle id="right_4" type="car" route="right" depart="8" departSpeed="5"/>
    <vehicle id="left_5" type="car" route="left" depart="8" departSpeed="5"/>
    <vehicle id="down_6" type="car" route="down" depart="10" departSpeed="5"/>
    <vehicle id="down_7" type="car" route="down" depart="14" departSpeed="5"/>
    <vehicle id="down_8" type="car" route="down" depart="16" departSpeed="5"/>
    <vehicle id="right_9" type="car" route="right" depart="19" departSpeed="5"/>
    <vehicle id="left_10" type="car" route="left" depart="20" departSpeed="5"/>
    <vehicle id="down_11" type="car" route="down" depart="22" departSpeed="5"/>
    <vehicle id="down_12" type="car" route="down" depart="27" departSpeed="5"/>
    <vehicle id="left_13" type="car" route="left" depart="28" departSpeed="5"/>
    <vehicle id="down_14" type="car" route="down" depart="32" departSpeed="5"/>
    <vehicle id="up_15" type="car" route="up" depart="37" departSpeed="5"/>
    <vehicle id="left_16" type="car" route="left" depart="40" departSpeed="5"/>
    <vehicle id="down_17" type="car" route="down" depart="44" departSpeed="5"/>
    <vehicle id="up_18" type="car" route="up" depart="44" departSpeed="5"/>
    <vehicle id="left_19" type="car" route="left" depart="45" departSpeed="5"/>
    <vehicle id="down_20" type="car" route="down" depart="45" departSpeed="5"/>
    <vehicle id="down_21" type="car" route="down" depart="46" departSpeed="5"/>
    <vehicle id="down_22" type="car" route="down" depart="47" departSpeed="5"/>
    <vehicle id="left_23" type="car" route="left" depart="48" departSpeed="5"/>
    <vehicle id="left_24" type="car" route="left" depart="50" departSpeed="5"/>
    <vehicle id="up_25" type="car" route="up" depart="51" departSpeed="5"/>
    <vehicle id="left_26" type="car" route="left" depart="52" departSpeed="5"/>
    <vehicle id="left_27" type="car" route="left" depart="55" departSpeed="5"/>
    <vehicle id="right_28" type="car" route="right" depart="56" departSpeed="5"/>
    <vehicle id="right_29" type="car" route="right" depart="60" departSpeed="5"/>
    <vehicle id="left_30" type="car" route="left" depart="62" departSpeed="5"/>
    <vehicle id="left_31" type="car" route="left" depart="64" departSpeed="5"/>
    <vehicle id="up_32" type="car" route="up" depart="70" departSpeed="5"/>
    <vehicle id="up_33" type="car" route="up" depart="77" departSpeed="5"/>
    <vehicle id="left_34" type="car" route="left" depart="81" departSpeed="5"/>
    <vehicle id="up_35" type="car" route="up" depart="82" departSpeed="5"/>
    <vehicle id="up_36" type="car" route="up" depart="85" departSpeed="5"/>
    <vehicle id="up_37" type="car" route="up" depart="89" departSpeed="5"/>
    <vehicle id="down_38" type="car" route="down" depart="93" departSpeed="5"/>
    <vehicle id="right_39" type="car" route="right" depart="94" departSpeed="5"/>
    <vehicle id="up_40" type="car" route="up" depart="95" departSpeed="5"/>
    <vehicle id="left_41" type="car" route="left" depart="96" departSpeed="5"/>
    <vehicle id="down_42" type="car" route="down" depart="98" departSpeed="5"/>
    <vehicle id="right_43" type="car" route="right" depart="103" departSpeed="5"/>
    <vehicle id="left_44" type="car" route="left" depart="105" departSpeed="5"/>
    <vehicle id="left_45" type="car" route="left" depart="108" departSpeed="5"/>
    <vehicle id="right_46" type="car" route="right" depart="109" departSpeed="5"/>
    <vehicle id="up_47" type="car" route="up" depart="110" departSpeed="5"/>
    <vehicle id="right_48" type="car" route="right" depart="117" departSpeed="5"/>
    <vehicle id="left_49" type="car" route="left" depart="117" departSpeed="5"/>
    <vehicle id="left_50" type="car" route="left" depart="118" departSpeed="5"/>
    <vehicle id="right_51" type="car" route="right" depart="119" departSpeed="5"/>
    <vehicle id="left_52" type="car" route="left" depart="120" departSpeed="5"/>
    <vehicle id="up_53" type="car" route="up" depart="120" departSpeed="5"/>
    <vehicle id="down_54" type="car" route="down" depart="123" departSpeed="5"/>
    <vehicle id="right_55" type="car" route="right" depart="124" departSpeed="5"/>
    <vehicle id="left_56" type="car" route="left" depart="125" departSpeed="5"/>
    <vehicle id="down_57" type="car" route="down" depart="125" departSpeed="5"/>
    <vehicle id="down_58" type="car" route="down" depart="128" departSpeed="5"/>
    <vehicle id="down_59" type="car" route="down" depart="131" departSpeed="5"/>
    <vehicle id="down_60" type="car" route="down" depart="134" departSpeed="5"/>
    <vehicle id="right_61" type="car" route="right" depart="136" departSpeed="5"/>
    <vehicle id="down_62" type="car" route="down" depart="139" departSpeed="5"/>
    <vehicle id="right_63" type="car" route="right" depart="146" departSpeed="5"/>
    <vehicle id="right_64" type="car" route="right" depart="149" departSpeed="5"/>
    <vehicle id="left_65" type="car" route="left" depart="154" departSpeed="5"/>
    <vehicle id="left_66" type="car" route="left" depart="155" departSpeed="5"/>
    <vehicle id="up_67" type="car" route="up" depart="157" departSpeed="5"/>
    <vehicle id="left_68" type="car" route="left" depart="161" departSpeed="5"/>
    <vehicle id="right_69" type="car" route="right" depart="162" departSpeed="5"/>
    <vehicle id="right_70" type="car" route="right" depart="163" departSpeed="5"/>
    <vehicle id="left_71" type="car" route="left" depart="171" departSpeed="5"/>
    <vehicle id="left_72" type="car" route="left" depart="172" departSpeed="5"/>
    <vehicle id="up_73" type="car" route="up" depart="172" departSpeed="5"/>
    <vehicle id="left_74" type="car" route="left" depart="173" departSpeed="5"/>
    <vehicle id="up_75" type="car" route="up" depart="173" departSpeed="5"/>
    <vehicle id="up_76" type="car" route="up" depart="174" departSpeed="5"/>
    <vehicle id="left_77" type="car" route="left" depart="177" departSpeed="5"/>
    <vehicle id="down_78" type="car" route="down" depart="177" departSpeed="5"/>
    <vehicle id="left_79" type="car" route="left" depart="178" departSpeed="5"/>
    <vehicle id="up_80" type="car" route="up" depart="179" departSpeed="5"/>
    <vehicle id="up_81" type="car" route="up" depart="180" departSpeed="5"/>
    <vehicle id="down_82" type="car" route="down" depart="181" departSpeed="5"/>
    <vehicle id="up_83" type="car" route="up" depart="184" departSpeed="5"/>
    <vehicle id="up_84" type="car" route="up" depart="185" departSpeed="5"/>
    <vehicle id="right_85" type="car" route="right" depart="186" departSpeed="5"/>
    <vehicle id="up_86" type="car" route="up" depart="186" departSpeed="5"/>
    <vehicle id="right_87" type="car" route="right" depart="190" departSpeed="5"/>
    <vehicle id="down_88" type="car" route="down" depart="190" departSpeed="5"/>
    <vehicle id="left_89" type="car" route="left" depart="194" departSpeed="5"/>
    <vehicle id="left_90" type="car" route="left" depart="199" departSpeed="5"/>
    <vehicle id="left_91" type="car" route="left" depart="209" departSpeed="5"/>
    <vehicle id="left_92" type="car" route="left" depart="213" departSpeed="5"/>
    <vehicle id="up_93" type="car" route="up" depart="219" departSpeed="5"/>
    <vehicle id="right_94" type="car" route="right" depart="221" departSpeed="5"/>
    <vehicle id="left_95" type="car" route="left" depart="224" departSpeed="5"/>
    <vehicle id="left_96" type="car" route="left" depart="226" departSpeed="5"/>
    <vehicle id="down_97" type="car" route="down" depart="226" departSpeed="5"/>
    <vehicle id="right_98" type="car" route="right" depart="227" departSpeed="5"/>
    <vehicle id="up_99" type="car" route="up" depart="230" departSpeed="5"/>
    <vehicle id="down_100" type="car" route="down" depart="236" departSpeed="5"/>
    <vehicle id="up_101" type="car" route="up" depart="236" departSpeed="5"/>
    <vehicle id="down_102" type="car" route="down" depart="238" departSpeed="5"/>
    <vehicle id="left_103" type="car" route="left" depart="240" departSpeed="5"/>
    <vehicle id="left_104" type="car" route="left" depart="241" departSpeed="5"/>
    <vehicle id="right_105" type="car" route="right" depart="242" departSpeed="5"/>
    <vehicle id="up_106" type="car" route="up" depart="242" departSpeed="5"/>
    <vehicle id="left_107" type="car" route="left" depart="246" departSpeed="5"/>
    <vehicle id="up_108" type="car" route="up" depart="248" departSpeed="5"/>
    <vehicle id="right_109" type="car" route="right" depart="251" departSpeed="5"/>
    <vehicle id="up_110" type="car" route="up" depart="253" departSpeed="5"/>
    <vehicle id="left_111" type="car" route="left" depart="256" departSpeed="5"/>
    <vehicle id="down_112" type="car" route="down" depart="256" departSpeed="5"/>
    <vehicle id="left_113" type="car" route="left" depart="264" departSpeed="5"/>
    <vehicle id="up_114" type="car" route="up" depart="264" departSpeed="5"/>
    <vehicle id="down_115" type="car" route="down" depart="265" departSpeed="5"/>
    <vehicle id="down_116" type="car" route="down" depart="267" departSpeed="5"/>
    <vehicle id="up_117" type="car" route="up" depart="273" departSpeed="5"/>
    <vehicle id="up_118" type="car" route="up" depart="274" departSpeed="5"/>
    <vehicle id="right_119" type="car" route="right" depart="275" departSpeed="5"/>
    <vehicle id="down_120" type="car" route="down" depart="276" departSpeed="5"/>
    <vehicle id="down_121" type="car" route="down" depart="277" departSpeed="5"/>
    <vehicle id="up_122" type="car" route="up" depart="277" departSpeed="5"/>
    <vehicle id="left_123" type="car" route="left" depart="284" departSpeed="5"/>
    <vehicle id="left_124" type="car" route="left" depart="291" departSpeed="5"/>
    <vehicle id="up_125" type="car" route="up" depart="291" departSpeed="5"/>
    <vehicle id="right_126" type="car" route="right" depart="293" departSpeed="5"/>
    <vehicle id="left_127" type="car" route="left" depart="294" departSpeed="5"/>
    <vehicle id="up_128" type="car" route="up" depart="294" departSpeed="5"/>
    <vehicle id="left_129" type="car" route="left" depart="296" departSpeed="5"/>
    <vehicle id="left_130" type="car" route="left" depart="300" departSpeed="5"/>
    <vehicle id="up_131" type="car" route="up" depart="300" departSpeed="5"/>
    <vehicle id="up_132" type="car" route="up" depart="301" departSpeed="5"/>
    <vehicle id="left_133" type="car" route="left" depart="308" departSpeed="5"/>
    <vehicle id="down_134" type="car" route="down" depart="317" departSpeed="5"/>
    <vehicle id="up_135" type="car" route="up" depart="317" departSpeed="5"/>
    <vehicle id="right_136" type="car" route="right" depart="319" departSpeed="5"/>
    <vehicle id="up_137" type="car" route="up" depart="322" departSpeed="5"/>
    <vehicle id="left_138" type="car" route="left" depart="323" departSpeed="5"/>
    <vehicle id="left_139" type="car" route="left" depart="324" departSpeed="5"/>
    <vehicle id="down_140" type="car" route="down" depart="327" departSpeed="5"/>
    <vehicle id="up_141" type="car" route="up" depart="327" departSpeed="5"/>
    <vehicle id="right_142" type="car" route="right" depart="328" departSpeed="5"/>
    <vehicle id="left_143" type="car" route="left" depart="336" departSpeed="5"/>
    <vehicle id="left_144" type="car" route="left" depart="338" departSpeed="5"/>
    <vehicle id="right_145" type="car" route="right" depart="340" departSpeed="5"/>
    <vehicle id="down_146" type="car" route="down" depart="340" departSpeed="5"/>
    <vehicle id="up_147" type="car" route="up" depart="340" departSpeed="5"/>
    <vehicle id="down_148" type="car" route="down" depart="342" departSpeed="5"/>
    <vehicle id="right_149" type="car" route="right" depart="345" departSpeed="5"/>
    <vehicle id="up_150" type="car" route="up" depart="346" departSpeed="5"/>
    <vehicle id="left_151" type="car" route="left" depart="350" departSpeed="5"/>
    <vehicle id="up_152" type="car" route="up" depart="352" departSpeed="5"/>
    <vehicle id="right_153" type="car" route="right" depart="355" departSpeed="5"/>
    <vehicle id="down_154" type="car" route="down" depart="356" departSpeed="5"/>
    <vehicle id="down_155" type="car" route="down" depart="358" departSpeed="5"/>
    <vehicle id="down_156" type="car" route="down" depart="360" departSpeed="5"/>
    <vehicle id="up_157" type="car" route="up" depart="362" departSpeed="5"/>
    <vehicle id="right_158" type="car" route="right" depart="365" departSpeed="5"/>
    <vehicle id="left_159" type="car" route="left" depart="365" departSpeed="5"/>
    <vehicle id="down_160" type="car" route="down" depart="366" departSpeed="5"/>
    <vehicle id="left_161" type="car" route="left" depart="369" departSpeed="5"/>
    <vehicle id="down_162" type="car" route="down" depart="372" departSpeed="5"/>
    <vehicle id="right_163" type="car" route="right" depart="373" departSpeed="5"/>
    <vehicle id="right_164" type="car" route="right" depart="374" departSpeed="5"/>
    <vehicle id="left_165" type="car" route="left" depart="374" departSpeed="5"/>
    <vehicle id="right_166" type="car" route="right" depart="375" departSpeed="5"/>
    <vehicle id="right_167" type="car" route="right" depart="376" departSpeed="5"/>
    <vehicle id="down_168" type="car" route="down" depart="377" departSpeed="5"/>
    <vehicle id="down_169" type="car" route="down" depart="380" departSpeed="5"/>
    <vehicle id="down_170" type="car" route="down" depart="387" departSpeed="5"/>
    <vehicle id="right_171" type="car" route="right" depart="391" departSpeed="5"/>
    <vehicle id="down_172" type="car" route="down" depart="392" departSpeed="5"/>
    <vehicle id="right_173" type="car" route="right" depart="396" departSpeed="5"/>
    <vehicle id="left_174" type="car" route="left" depart="400" departSpeed="5"/>
    <vehicle id="right_175" type="car" route="right" depart="402" departSpeed="5"/>
    <vehicle id="up_176" type="car" route="up" depart="402" departSpeed="5"/>
    <vehicle id="left_177" type="car" route="left" depart="403" departSpeed="5"/>
    <vehicle id="up_178" type="car" route="up" depart="407" departSpeed="5"/>
    <vehicle id="down_179" type="car" route="down" depart="411" departSpeed="5"/>
    <vehicle id="down_180" type="car" route="down" depart="413" departSpeed="5"/>
    <vehicle id="left_181" type="car" route="left" depart="417" departSpeed="5"/>
    <vehicle id="right_182" type="car" route="right" depart="419" departSpeed="5"/>
    <vehicle id="left_183" type="car" route="left" depart="419" departSpeed="5"/>
    <vehicle id="down_184" type="car" route="down" depart="419" departSpeed="5"/>
    <vehicle id="down_185" type="car" route="down" depart="428" departSpeed="5"/>
    <vehicle id="right_186" type="car" route="right" depart="431" departSpeed="5"/>
    <vehicle id="down_187" type="car" route="down" depart="433" departSpeed="5"/>
    <vehicle id="up_188" type="car" route="up" depart="434" departSpeed="5"/>
    <vehicle id="right_189" type="car" route="right" depart="441" departSpeed="5"/>
    <vehicle id="up_190" type="car" route="up" depart="441" departSpeed="5"/>
    <vehicle id="up_191" type="car" route="up" depart="450" departSpeed="5"/>
    <vehicle id="right_192" type="car" route="right" depart="453" departSpeed="5"/>
    <vehicle id="left_193" type="car" route="left" depart="457" departSpeed="5"/>
    <vehicle id="up_194" type="car" route="up" depart="458" departSpeed="5"/>
    <vehicle id="down_195" type="car" route="down" depart="460" departSpeed="5"/>
    <vehicle id="right_196" type="car" route="right" depart="479" departSpeed="5"/>
    <vehicle id="down_197" type="car" route="down" depart="479" departSpeed="5"/>
    <vehicle id="left_198" type="car" route="left" depart="480" departSpeed="5"/>
    <vehicle id="right_199" type="car" route="right" depart="482" departSpeed="5"/>
    <vehicle id="down_200" type="car" route="down" depart="483" departSpeed="5"/>
    <vehicle id="right_201" type="car" route="right" depart="486" departSpeed="5"/>
    <vehicle id="down_202" type="car" route="down" depart="487" departSpeed="5"/>
    <vehicle id="up_203" type="car" route="up" depart="495" departSpeed="5"/>
    <vehicle id="right_204" type="car" route="right" depart="504" departSpeed="5"/>
    <vehicle id="right_205" type="car" route="right" depart="508" departSpeed="5"/>
    <vehicle id="down_206" type="car" route="down" depart="516" departSpeed="5"/>
    <vehicle id="up_207" type="car" route="up" depart="519" departSpeed="5"/>
    <vehicle id="up_208" type="car" route="up" depart="521" departSpeed="5"/>
    <vehicle id="up_209" type="car" route="up" depart="522" departSpeed="5"/>
    <vehicle id="down_210" type="car" route="down" depart="527" departSpeed="5"/>
    <vehicle id="down_211" type="car" route="down" depart="529" departSpeed="5"/>
    <vehicle id="down_212" type="car" route="down" depart="533" departSpeed="5"/>
    <vehicle id="left_213" type="car" route="left" depart="534" departSpeed="5"/>
    <vehicle id="up_214" type="car" route="up" depart="535" departSpeed="5"/>
    <vehicle id="right_215" type="car" route="right" depart="539" departSpeed="5"/>
    <vehicle id="down_216" type="car" route="down" depart="539" departSpeed="5"/>
    <vehicle id="right_217" type="car" route="right" depart="540" departSpeed="5"/>
    <vehicle id="left_218" type="car" route="left" depart="542" departSpeed="5"/>
    <vehicle id="right_219" type="car" route="right" depart="547" departSpeed="5"/>
    <vehicle id="down_220" type="car" route="down" depart="551" departSpeed="5"/>
    <vehicle id="up_221" type="car" route="up" depart="551" departSpeed="5"/>
    <vehicle id="right_222" type="car" route="right" depart="552" departSpeed="5"/>
    <vehicle id="left_223" type="car" route="left" depart="552" departSpeed="5"/>
    <vehicle id="right_224" type="car" route="right" depart="555" departSpeed="5"/>
    <vehicle id="left_225" type="car" route="left" depart="557" departSpeed="5"/>
    <vehicle id="right_226" type="car" route="right" depart="558" departSpeed="5"/>
    <vehicle id="right_227" type="car" route="right" depart="561" departSpeed="5"/>
    <vehicle id="left_228" type="car" route="left" depart="567" departSpeed="5"/>
    <vehicle id="right_229" type="car" route="right" depart="569" departSpeed="5"/>
    <vehicle id="right_230" type="car" route="right" depart="574" departSpeed="5"/>
    <vehicle id="left_231" type="car" route="left" depart="575" departSpeed="5"/>
    <vehicle id="up_232" type="car" route="up" depart="576" departSpeed="5"/>
    <vehicle id="down_233" type="car" route="down" depart="583" departSpeed="5"/>
    <vehicle id="down_234" type="car" route="down" depart="586" departSpeed="5"/>
    <vehicle id="right_235" type="car" route="right" depart="595" departSpeed="5"/>
    <vehicle id="left_236" type="car" route="left" depart="595" departSpeed="5"/>
    <vehicle id="up_237" type="car" route="up" depart="595" departSpeed="5"/>
    <vehicle id="right_238" type="car" route="right" depart="598" departSpeed="5"/>
    <vehicle id="down_239" type="car" route="down" depart="598" departSpeed="5"/>
    <vehicle id="left_240" type="car" route="left" depart="600" departSpeed="5"/>
    <vehicle id="down_241" type="car" route="down" depart="603" departSpeed="5"/>
    <vehicle id="right_242" type="car" route="right" depart="607" departSpeed="5"/>
    <vehicle id="up_243" type="car" route="up" depart="607" departSpeed="5"/>
    <vehicle id="right_244" type="car" route="right" depart="609" departSpeed="5"/>
    <vehicle id="down_245" type="car" route="down" depart="612" departSpeed="5"/>
    <vehicle id="down_246" type="car" route="down" depart="617" departSpeed="5"/>
    <vehicle id="up_247" type="car" route="up" depart="618" departSpeed="5"/>
    <vehicle id="right_248" type="car" route="right" depart="619" departSpeed="5"/>
    <vehicle id="left_249" type="car" route="left" depart="619" departSpeed="5"/>
    <vehicle id="left_250" type="car" route="left" depart="621" departSpeed="5"/>
    <vehicle id="down_251" type="car" route="down" depart="622" departSpeed="5"/>
    <vehicle id="up_252" type="car" route="up" depart="627" departSpeed="5"/>
    <vehicle id="down_253" type="car" route="down" depart="629" departSpeed="5"/>
    <vehicle id="down_254" type="car" route="down" depart="632" departSpeed="5"/>
    <vehicle id="up_255" type="car" route="up" depart="633" departSpeed="5"/>
    <vehicle id="up_256" type="car" route="up" depart="634" departSpeed="5"/>
    <vehicle id="up_257" type="car" route="up" depart="639" departSpeed="5"/>
    <vehicle id="down_258" type="car" route="down" depart="641" departSpeed="5"/>
    <vehicle id="right_259" type="car" route="right" depart="657" departSpeed="5"/>
    <vehicle id="left_260" type="car" route="left" depart="657" departSpeed="5"/>
    <vehicle id="down_261" type="car" route="down" depart="659" departSpeed="5"/>
    <vehicle id="up_262" type="car" route="up" depart="667" departSpeed="5"/>
    <vehicle id="down_263" type="car" route="down" depart="668" departSpeed="5"/>
    <vehicle id="down_264" type="car" route="down" depart="671" departSpeed="5"/>
    <vehicle id="right_265" type="car" route="right" depart="674" departSpeed="5"/>
    <vehicle id="left_266" type="car" route="left" depart="674" departSpeed="5"/>
    <vehicle id="down_267" type="car" route="down" depart="675" departSpeed="5"/>
    <vehicle id="right_268" type="car" route="right" depart="679" departSpeed="5"/>
    <vehicle id="down_269" type="car" route="down" depart="681" departSpeed="5"/>
    <vehicle id="right_270" type="car" route="right" depart="682" departSpeed="5"/>
    <vehicle id="left_271" type="car" route="left" depart="682" departSpeed="5"/>
    <vehicle id="down_272" type="car" route="down" depart="683" departSpeed="5"/>
    <vehicle id="right_273" type="car" route="right" depart="684" departSpeed="5"/>
    <vehicle id="down_274" type="car" route="down" depart="684" departSpeed="5"/>
    <vehicle id="up_275" type="car" route="up" depart="684" departSpeed="5"/>
    <vehicle id="up_276" type="car" route="up" depart="691" departSpeed="5"/>
    <vehicle id="right_277" type="car" route="right" depart="692" departSpeed="5"/>
    <vehicle id="left_278" type="car" route="left" depart="692" departSpeed="5"/>
    <vehicle id="down_279" type="car" route="down" depart="693" departSpeed="5"/>
    <vehicle id="left_280" type="car" route="left" depart="694" departSpeed="5"/>
    <vehicle id="left_281" type="car" route="left" depart="696" departSpeed="5"/>
    <vehicle id="left_282" type="car" route="left" depart="698" departSpeed="5"/>
    <vehicle id="down_283" type="car" route="down" depart="699" departSpeed="5"/>
    <vehicle id="up_284" type="car" route="up" depart="703" departSpeed="5"/>
    <vehicle id="up_285" type="car" route="up" depart="704" departSpeed="5"/>
    <vehicle id="left_286" type="car" route="left" depart="707" departSpeed="5"/>
    <vehicle id="up_287" type="car" route="up" depart="708" departSpeed="5"/>
    <vehicle id="left_288" type="car" route="left" depart="709" departSpeed="5"/>
    <vehicle id="down_289" type="car" route="down" depart="712" departSpeed="5"/>
    <vehicle id="up_290" type="car" route="up" depart="712" departSpeed="5"/>
    <vehicle id="left_291" type="car" route="left" depart="713" departSpeed="5"/>
    <vehicle id="down_292" type="car" route="down" depart="714" departSpeed="5"/>
    <vehicle id="down_293" type="car" route="down" depart="723" departSpeed="5"/>
    <vehicle id="up_294" type="car" route="up" depart="724" departSpeed="5"/>
    <vehicle id="right_295" type="car" route="right" depart="726" departSpeed="5"/>
    <vehicle id="right_296" type="car" route="right" depart="729" departSpeed="5"/>
    <vehicle id="down_297" type="car" route="down" depart="729" departSpeed="5"/>
    <vehicle id="up_298" type="car" route="up" depart="730" departSpeed="5"/>
    <vehicle id="right_299" type="car" route="right" depart="733" departSpeed="5"/>
    <vehicle id="down_300" type="car" route="down" depart="733" departSpeed="5"/>
    <vehicle id="right_301" type="car" route="right" depart="743" departSpeed="5"/>
    <vehicle id="up_302" type="car" route="up" depart="743" departSpeed="5"/>
    <vehicle id="up_303" type="car" route="up" depart="745" departSpeed="5"/>
    <vehicle id="left_304" type="car" route="left" depart="746" departSpeed="5"/>
    <vehicle id="right_305" type="car" route="right" depart="750" departSpeed="5"/>
    <vehicle id="right_306" type="car" route="right" depart="753" departSpeed="5"/>
    <vehicle id="up_307" type="car" route="up" depart="759" departSpeed="5"/>
    <vehicle id="right_308" type="car" route="right" depart="765" departSpeed="5"/>
    <vehicle id="right_309" type="car" route="right" depart="766" departSpeed="5"/>
    <vehicle id="left_310" type="car" route="left" depart="767" departSpeed="5"/>
    <vehicle id="up_311" type="car" route="up" depart="769" departSpeed="5"/>
    <vehicle id="up_312" type="car" route="up" depart="770" departSpeed="5"/>
    <vehicle id="up_313" type="car" route="up" depart="771" departSpeed="5"/>
    <vehicle id="down_314" type="car" route="down" depart="773" departSpeed="5"/>
    <vehicle id="right_315" type="car" route="right" depart="777" departSpeed="5"/>
    <vehicle id="up_316" type="car" route="up" depart="778" departSpeed="5"/>
    <vehicle id="up_317" type="car" route="up" depart="779" departSpeed="5"/>
    <vehicle id="down_318" type="car" route="down" depart="790" departSpeed="5"/>
    <vehicle id="right_319" type="car" route="right" depart="791" departSpeed="5"/>
    <vehicle id="up_320" type="car" route="up" depart="796" departSpeed="5"/>
    <vehicle id="down_321" type="car" route="down" depart="798" departSpeed="5"/>
    <vehicle id="right_322" type="car" route="right" depart="800" departSpeed="5"/>
    <vehicle id="left_323" type="car" route="left" depart="804" departSpeed="5"/>
    <vehicle id="up_324" type="car" route="up" depart="804" departSpeed="5"/>
    <vehicle id="left_325" type="car" route="left" depart="808" departSpeed="5"/>
    <vehicle id="up_326" type="car" route="up" depart="811" departSpeed="5"/>
    <vehicle id="left_327" type="car" route="left" depart="812" departSpeed="5"/>
    <vehicle id="right_328" type="car" route="right" depart="815" departSpeed="5"/>
    <vehicle id="left_329" type="car" route="left" depart="817" departSpeed="5"/>
    <vehicle id="down_330" type="car" route="down" depart="817" departSpeed="5"/>
    <vehicle id="up_331" type="car" route="up" depart="820" departSpeed="5"/>
    <vehicle id="down_332" type="car" route="down" depart="824" departSpeed="5"/>
    <vehicle id="up_333" type="car" route="up" depart="829" departSpeed="5"/>
    <vehicle id="right_334" type="car" route="right" depart="831" departSpeed="5"/>
    <vehicle id="right_335" type="car" route="right" depart="833" departSpeed="5"/>
    <vehicle id="up_336" type="car" route="up" depart="836" departSpeed="5"/>
    <vehicle id="right_337" type="car" route="right" depart="841" departSpeed="5"/>
    <vehicle id="left_338" type="car" route="left" depart="845" departSpeed="5"/>
    <vehicle id="right_339" type="car" route="right" depart="847" departSpeed="5"/>
    <vehicle id="right_340" type="car" route="right" depart="850" departSpeed="5"/>
    <vehicle id="up_341" type="car" route="up" depart="851" departSpeed="5"/>
    <vehicle id="right_342" type="car" route="right" depart="855" departSpeed="5"/>
    <vehicle id="down_343" type="car" route="down" depart="858" departSpeed="5"/>
    <vehicle id="down_344" type="car" route="down" depart="860" departSpeed="5"/>
    <vehicle id="right_345" type="car" route="right" depart="861" departSpeed="5"/>
    <vehicle id="right_346" type="car" route="right" depart="862" departSpeed="5"/>
    <vehicle id="up_347" type="car" route="up" depart="865" departSpeed="5"/>
    <vehicle id="down_348" type="car" route="down" depart="873" departSpeed="5"/>
    <vehicle id="right_349" type="car" route="right" depart="874" departSpeed="5"/>
    <vehicle id="right_350" type="car" route="right" depart="875" departSpeed="5"/>
    <vehicle id="right_351" type="car" route="right" depart="877" departSpeed="5"/>
    <vehicle id="down_352" type="car" route="down" depart="879" departSpeed="5"/>
    <vehicle id="right_353" type="car" route="right" depart="885" departSpeed="5"/>
    <vehicle id="left_354" type="car" route="left" depart="900" departSpeed="5"/>
    <vehicle id="left_355" type="car" route="left" depart="907" departSpeed="5"/>
    <vehicle id="up_356" type="car" route="up" depart="910" departSpeed="5"/>
    <vehicle id="right_357" type="car" route="right" depart="914" departSpeed="5"/>
    <vehicle id="left_358" type="car" route="left" depart="916" departSpeed="5"/>
    <vehicle id="up_359" type="car" route="up" depart="919" departSpeed="5"/>
    <vehicle id="down_360" type="car" route="down" depart="921" departSpeed="5"/>
    <vehicle id="up_361" type="car" route="up" depart="921" departSpeed="5"/>
    <vehicle id="left_362" type="car" route="left" depart="922" departSpeed="5"/>
    <vehicle id="up_363" type="car" route="up" depart="923" departSpeed="5"/>
    <vehicle id="right_364" type="car" route="right" depart="924" departSpeed="5"/>
    <vehicle id="up_365" type="car" route="up" depart="926" departSpeed="5"/>