<routes>
                               <vType id="car" accel="2.0" decel="8.5" sigma="0.7" length="5" minGap="3" maxSpeed="30" guiShape="passenger"/>

                               <route id="WETop" edges="5i 1i 2o" />
                               <route id="EWTop" edges="2i 1o 5o" />
                               <route id="NS" edges="4i 3o 8i" />
                               <route id="SN" edges="8o 3i 4o" />
                               <route id="WEBottom" edges="7o 11o" />
                               <route id="EWBottom" edges="11i 7i" />

                               <route id="t2" edges="8o 7i" />
                               <route id="t3" edges="4i 1o 6i" />
                               <route id="t4" edges="7o 3i 2o" />
                               <route id="t5" edges="6o 1i 4o" />
                               <route id="t6" edges="5i 1i 3o 11o" />
                               
    <vehicle id="WETop_0" type="car" route="WETop" depart="0" departSpeed="15"/>
    <vehicle id="EWTop_1" type="car" route="EWTop" depart="0" departSpeed="15"/>
    <vehicle id="SN_2" type="car" route="SN" depart="0" departSpeed="15"/>
    <vehicle id="t2_3" type="car" route="t2" depart="0" departSpeed="15"/>
    <vehicle id="t4_4" type="car" route="t4" depart="1" departSpeed="15"/>
    <vehicle id="t3_5" type="car" route="t3" depart="4" departSpeed="15"/>
    <vehicle id="t2_6" type="car" route="t2" depart="6" departSpeed="15"/>
    <vehicle id="t3_7" type="car" route="t3" depart="6" departSpeed="15"/>
    <vehicle id="WETop_8" type="car" route="WETop" depart="8" departSpeed="15"/>
    <vehicle id="NS_9" type="car" route="NS" depart="8" departSpeed="15"/>
    <vehicle id="t3_10" type="car" route="t3" depart="10" departSpeed="15"/>
    <vehicle id="t4_11" type="car" route="t4" depart="10" departSpeed="15"/>
    <vehicle id="EWTop_12" type="car" route="EWTop" depart="11" departSpeed="15"/>
    <vehicle id="t2_13" type="car" route="t2" depart="11" departSpeed="15"/>
    <vehicle id="t3_14" type="car" route="t3" depart="11" departSpeed="15"/>
    <vehicle id="EWBottom_15" type="car" route="EWBottom" depart="12" departSpeed="15"/>
    <vehicle id="SN_16" type="car" route="SN" depart="12" departSpeed="15"/>
    <vehicle id="NS_17" type="car" route="NS" depart="13" departSpeed="15"/>
    <vehicle id="SN_18" type="car" route="SN" depart="14" departSpeed="15"/>
    <vehicle id="t6_19" type="car" route="t6" depart="15" departSpeed="15"/>
    <vehicle id="NS_20" type="car" route="NS" depart="17" departSpeed="15"/>
    <vehicle id="SN_21" type="car" route="SN" depart="21" departSpeed="15"/>
    <vehicle id="t5_22" type="car" route="t5" depart="21" departSpeed="15"/>
    <vehicle id="EWTop_23" type="car" route="EWTop" depart="24" departSpeed="15"/>
    <vehicle id="NS_24" type="car" route="NS" depart="24" departSpeed="15"/>
    <vehicle id="EWTop_25" type="car" route="EWTop" depart="25" departSpeed="15"/>
    <vehicle id="NS_26" type="car" route="NS" depart="25" departSpeed="15"/>
    <vehicle id="t6_27" type="car" route="t6" depart="25" departSpeed="15"/>
    <vehicle id="EWBottom_28" type="car" route="EWBottom" depart="27" departSpeed="15"/>
    <vehicle id="t3_29" type="car" route="t3" depart="27" departSpeed="15"/>
    <vehicle id="EWTop_30" type="car" route="EWTop" depart="31" departSpeed="15"/>
    <vehicle id="EWBottom_31" type="car" route="EWBottom" depart="31" departSpeed="15"/>
    <vehicle id="NS_32" type="car" route="NS" depart="32" departSpeed="15"/>
    <vehicle id="EWBottom_33" type="car" route="EWBottom" depart="33" departSpeed="15"/>
    <vehicle id="t4_34" type="car" route="t4" depart="33" departSpeed="15"/>
    <vehicle id="t3_35" type="car" route="t3" depart="34" departSpeed="15"/>
    <vehicle id="t4_36" type="car" route="t4" depart="34" departSpeed="15"/>
    <vehicle id="SN_37" type="car" route="SN" depart="35" departSpeed="15"/>
    <vehicle id="WEBottom_38" type="car" route="WEBottom" depart="36" departSpeed="15"/>
    <vehicle id="t2_39" type="car" route="t2" depart="39" departSpeed="15"/>
    <vehicle id="t3_40" type="car" route="t3" depart="39" departSpeed="15"/>
    <vehicle id="t5_41" type="car" route="t5" depart="39" departSpeed="15"/>
    <vehicle id="t2_42" type="car" route="t2" depart="41" departSpeed="15"/>
    <vehicle id="WEBottom_43" type="car" route="WEBottom" depart="42" departSpeed="15"/>
    <vehicle id="t5_44" type="car" route="t5" depart="42" departSpeed="15"/>
    <vehicle id="t2_45" type="car" route="t2" depart="44" departSpeed="15"/>
    <vehicle id="t6_46" type="car" route="t6" depart="45" departSpeed="15"/>
    <vehicle id="WEBottom_47" type="car" route="WEBottom" depart="46" departSpeed="15"/>
    <vehicle id="WETop_48" type="car" route="WETop" depart="48" departSpeed="15"/>
    <vehicle id="WEBottom_49" type="car" route="WEBottom" depart="48" departSpeed="15"/>
    <vehicle id="WETop_50" type="car" route="WETop" depart="49" departSpeed="15"/>
    <vehicle id="t5_51" type="car" route="t5" depart="50" departSpeed="15"/>
    <vehicle id="EWBottom_52" type="car" route="EWBottom" depart="52" departSpeed="15"/>
    <vehicle id="t3_53" type="car" route="t3" depart="52" departSpeed="15"/>
    <vehicle id="EWTop_54" type="car" route="EWTop" depart="53" departSpeed="15"/>
    <vehicle id="EWTop_55" type="car" route="EWTop" depart="54" departSpeed="15"/>
    <vehicle id="WEBottom_56" type="car" route="WEBottom" depart="54" departSpeed="15"/>
    <vehicle id="EWBottom_57" type="car" route="EWBottom" depart="54" departSpeed="15"/>
    <vehicle id="WEBottom_58" type="car" route="WEBottom" depart="56" departSpeed="15"/>
    <vehicle id="t3_59" type="car" route="t3" depart="56" departSpeed="15"/>
    <vehicle id="EWTop_60" type="car" route="EWTop" depart="58" departSpeed="15"/>
    <vehicle id="t2_61" type="car" route="t2" depart="58" departSpeed="15"/>
    <vehicle id="t4_62" type="car" route="t4" depart="58" departSpeed="15"/>
    <vehicle id="EWBottom_63" type="car" route="EWBottom" depart="59" departSpeed="15"/>
    <vehicle id="WETop_64" type="car" route="WETop" depart="61" departSpeed="15"/>
    <vehicle id="t6_65" type="car" route="t6" depart="62" departSpeed="15"/>
    <vehicle id="t2_66" type="car" route="t2" depart="63" departSpeed="15"/>
    <vehicle id="t2_67" type="car" route="t2" depart="65" departSpeed="15"/>
    <vehicle id="t4_68" type="car" route="t4" depart="65" departSpeed="15"/>
    <vehicle id="t5_69" type="car" route="t5" depart="65" departSpeed="15"/>
    <vehicle id="t4_70" type="car" route="t4" depart="66" departSpeed="15"/>
    <vehicle id="t3_71" type="car" route="t3" depart="67" departSpeed="15"/>
    <vehicle id="t6_72" type="car" route="t6" depart="68" departSpeed="15"/>
    <vehicle id="EWTop_73" type="car" route="EWTop" depart="69" departSpeed="15"/>
    <vehicle id="SN_74" type="car" route="SN" depart="69" departSpeed="15"/>
    <vehicle id="t4_75" type="car" route="t4" depart="69" departSpeed="15"/>
    <vehicle id="t6_76" type="car" route="t6" depart="70" departSpeed="15"/>
    <vehicle id="EWBottom_77" type="car" route="EWBottom" depart="71" departSpeed="15"/>
    <vehicle id="EWBottom_78" type="car" route="EWBottom" depart="72" departSpeed="15"/>
    <vehicle id="NS_79" type="car" route="NS" depart="72" departSpeed="15"/>
    <vehicle id="t2_80" type="car" route="t2" depart="72" departSpeed="15"/>
    <vehicle id="WETop_81" type="car" route="WETop" depart="73" departSpeed="15"/>
    <vehicle id="t2_82" type="car" route="t2" depart="73" departSpeed="15"/>
    <vehicle id="EWBottom_83" type="car" route="EWBottom" depart="74" departSpeed="15"/>
    <vehicle id="t6_84" type="car" route="t6" depart="74" departSpeed="15"/>
    <vehicle id="SN_85" type="car" route="SN" depart="75" departSpeed="15"/>
    <vehicle id="t6_86" type="car" route="t6" depart="77" departSpeed="15"/>
    <vehicle id="EWTop_87" type="car" route="EWTop" depart="78" departSpeed="15"/>
    <vehicle id="EWBottom_88" type="car" route="EWBottom" depart="78" departSpeed="15"/>
    <vehicle id="t2_89" type="car" route="t2" depart="78" departSpeed="15"/>
    <vehicle id="NS_90" type="car" route="NS" depart="79" departSpeed="15"/>
    <vehicle id="t5_91" type="car" route="t5" depart="79" departSpeed="15"/>
    <vehicle id="WETop_92" type="car" route="WETop" depart="80" departSpeed="15"/>
    <vehicle id="EWTop_93" type="car" route="EWTop" depart="80" departSpeed="15"/>
    <vehicle id="WEBottom_94" type="car" route="WEBottom" depart="81" departSpeed="15"/>
    <vehicle id="NS_95" type="car" route="NS" depart="81" departSpeed="15"/>
    <vehicle id="SN_96" type="car" route="SN" depart="82" departSpeed="15"/>
    <vehicle id="SN_97" type="car" route="SN" depart="83" departSpeed="15"/>
    <vehicle id="t6_98" type="car" route="t6" depart="84" departSpeed="15"/>
    <vehicle id="WEBottom_99" type="car" route="WEBottom" depart="85" departSpeed="15"/>
    <vehicle id="t3_100" type="car" route="t3" depart="85" departSpeed="15"/>
    <vehicle id="SN_101" type="car" route="SN" depart="88" departSpeed="15"/>
    <vehicle id="SN_102" type="car" route="SN" depart="89" departSpeed="15"/>
    <vehicle id="t2_103" type="car" route="t2" depart="89" departSpeed="15"/>
    <vehicle id="WEBottom_104" type="car" route="WEBottom" depart="90" departSpeed="15"/>
    <vehicle id="SN_105" type="car" route="SN" depart="90" departSpeed="15"/>
    <vehicle id="t4_106" type="car" route="t4" depart="91" departSpeed="15"/>
    <vehicle id="WETop_107" type="car" route="WETop" depart="92" departSpeed="15"/>
    <vehicle id="WEBottom_108" type="car" route="WEBottom" depart="92" departSpeed="15"/>
    <vehicle id="NS_109" type="car" route="NS" depart="92" departSpeed="15"/>
    <vehicle id="t5_110" type="car" route="t5" depart="93" departSpeed="15"/>
    <vehicle id="NS_111" type="car" route="NS" depart="94" departSpeed="15"/>
    <vehicle id="t4_112" type="car" route="t4" depart="96" departSpeed="15"/>
    <vehicle id="t6_113" type="car" route="t6" depart="98" departSpeed="15"/>
    <vehicle id="WETop_114" type="car" route="WETop" depart="99" departSpeed="15"/>
    <vehicle id="t2_115" type="car" route="t2" depart="99" departSpeed="15"/>
    <vehicle id="t4_116" type="car" route="t4" depart="99" departSpeed="15"/>
    <vehicle id="t6_117" type="car" route="t6" depart="99" departSpeed="15"/>
    <vehicle id="NS_118" type="car" route="NS" depart="102" departSpeed="15"/>
    <vehicle id="SN_119" type="car" route="SN" depart="105" departSpeed="15"/>
    <vehicle id="EWTop_120" type="car" route="EWTop" depart="107" departSpeed="15"/>
    <vehicle id="t4_121" type="car" route="t4" depart="107" departSpeed="15"/>
    <vehicle id="EWBottom_122" type="car" route="EWBottom" depart="108" departSpeed="15"/>
    <vehicle id="SN_123" type="car" route="SN" depart="108" departSpeed="15"/>
    <vehicle id="t3_124" type="car" route="t3" depart="108" departSpeed="15"/>
    <vehicle id="t2_125" type="car" route="t2" depart="110" departSpeed="15"/>
    <vehicle id="t4_126" type="car" route="t4" depart="110" departSpeed="15"/>
    <vehicle id="t6_127" type="car" route="t6" depart="110" departSpeed="15"/>
    <vehicle id="NS_128" type="car" route="NS" depart="112" departSpeed="15"/>
    <vehicle id="WETop_129" type="car" route="WETop" depart="114" departSpeed="15"/>
    <vehicle id="SN_130" type="car" route="SN" depart="114" departSpeed="15"/>
    <vehicle id="t3_131" type="car" route="t3" depart="115" departSpeed="15"/>
    <vehicle id="t4_132" type="car" route="t4" depart="115" departSpeed="15"/>
    <vehicle id="NS_133" type="car" route="NS" depart="117" departSpeed="15"/>
    <vehicle id="WEBottom_134" type="car" route="WEBottom" depart="118" departSpeed="15"/>
    <vehicle id="t2_135" type="car" route="t2" depart="120" departSpeed="15"/>
    <vehicle id="t5_136" type="car" route="t5" depart="120" departSpeed="15"/>
    <vehicle id="t6_137" type="car" route="t6" depart="121" departSpeed="15"/>
    <vehicle id="t5_138" type="car" route="t5" depart="122" departSpeed="15"/>
    <vehicle id="t6_139" type="car" route="t6" depart="123" departSpeed="15"/>
    <vehicle id="EWTop_140" type="car" route="EWTop" depart="124" departSpeed="15"/>
    <vehicle id="WEBottom_141" type="car" route="WEBottom" depart="125" departSpeed="15"/>
    <vehicle id="EWBottom_142" type="car" route="EWBottom" depart="125" departSpeed="15"/>
    <vehicle id="t3_143" type="car" route="t3" depart="125" departSpeed="15"/>
    <vehicle id="EWTop_144" type="car" route="EWTop" depart="126" departSpeed="15"/>
    <vehicle id="WETop_145" type="car" route="WETop" depart="127" departSpeed="15"/>
    <vehicle id="t2_146" type="car" route="t2" depart="129" departSpeed="15"/>
    <vehicle id="t6_147" type="car" route="t6" depart="131" departSpeed="15"/>
    <vehicle id="t2_148" type="car" route="t2" depart="132" departSpeed="15"/>
    <vehicle id="t4_149" type="car" route="t4" depart="133" departSpeed="15"/>
    <vehicle id="WEBottom_150" type="car" route="WEBottom" depart="134" departSpeed="15"/>
    <vehicle id="t6_151" type="car" route="t6" depart="134" departSpeed="15"/>
    <vehicle id="t3_152" type="car" route="t3" depart="135" departSpeed="15"/>
    <vehicle id="t6_153" type="car" route="t6" depart="135" departSpeed="15"/>
    <vehicle id="WEBottom_154" type="car" route="WEBottom" depart="136" departSpeed="15"/>
    <vehicle id="SN_155" type="car" route="SN" depart="136" departSpeed="15"/>
    <vehicle id="SN_156" type="car" route="SN" depart="138" departSpeed="15"/>
    <vehicle id="t4_157" type="car" route="t4" depart="138" departSpeed="15"/>
    <vehicle id="t5_158" type="car" route="t5" depart="138" departSpeed="15"/>
    <vehicle id="EWBottom_159" type="car" route="EWBottom" depart="140" departSpeed="15"/>
    <vehicle id="EWBottom_160" type="car" route="EWBottom" depart="141" departSpeed="15"/>
    <vehicle id="EWBottom_161" type="car" route="EWBottom" depart="142" departSpeed="15"/>
    <vehicle id="t3_162" type="car" route="t3" depart="142" departSpeed="15"/>
    <vehicle id="EWBottom_163" type="car" route="EWBottom" depart="143" departSpeed="15"/>
    <vehicle id="WETop_164" type="car" route="WETop" depart="144" departSpeed="15"/>
    <vehicle id="NS_165" type="car" route="NS" depart="145" departSpeed="15"/>
    <vehicle id="NS_166" type="car" route="NS" depart="146" departSpeed="15"/>
    <vehicle id="SN_167" type="car" route="SN" depart="147" departSpeed="15"/>
    <vehicle id="t6_168" type="car" route="t6" depart="148" departSpeed="15"/>
    <vehicle id="WEBottom_169" type="car" route="WEBottom" depart="149" departSpeed="15"/>
    <vehicle id="t5_170" type="car" route="t5" depart="152" departSpeed="15"/>
    <vehicle id="NS_171" type="car" route="NS" depart="154" departSpeed="15"/>
    <vehicle id="t4_172" type="car" route="t4" depart="154" departSpeed="15"/>
    <vehicle id="SN_173" type="car" route="SN" depart="155" departSpeed="15"/>
    <vehicle id="t6_174" type="car" route="t6" depart="155" departSpeed="15"/>
    <vehicle id="WETop_175" type="car" route="WETop" depart="156" departSpeed="15"/>
    <vehicle id="EWTop_176" type="car" route="EWTop" depart="156" departSpeed="15"/>
    <vehicle id="t2_177" type="car" route="t2" depart="156" departSpeed="15"/>
    <vehicle id="t3_178" type="car" route="t3" depart="156" departSpeed="15"/>
    <vehicle id="WETop_179" type="car" route="WETop" depart="157" departSpeed="15"/>
    <vehicle id="EWTop_180" type="car" route="EWTop" depart="157" departSpeed="15"/>
    <vehicle id="t6_181" type="car" route="t6" depart="157" departSpeed="15"/>
    <vehicle id="EWBottom_182" type="car" route="EWBottom" depart="158" departSpeed="15"/>
    <vehicle id="t2_183" type="car" route="t2" depart="158" departSpeed="15"/>
    <vehicle id="t5_184" type="car" route="t5" depart="158" departSpeed="15"/>
    <vehicle id="WEBottom_185" type="car" route="WEBottom" depart="160" departSpeed="15"/>
    <vehicle id="t3_186" type="car" route="t3" depart="160" departSpeed="15"/>
    <vehicle id="WETop_187" type="car" route="WETop" depart="161" departSpeed="15"/>
    <vehicle id="EWBottom_188" type="car" route="EWBottom" depart="161" departSpeed="15"/>
    <vehicle id="NS_189" type="car" route="NS" depart="161" departSpeed="15"/>
    <vehicle id="EWTop_190" type="car" route="EWTop" depart="162" departSpeed="15"/>
    <vehicle id="SN_191" type="car" route="SN" depart="163" departSpeed="15"/>
    <vehicle id="EWBottom_192" type="car" route="EWBottom" depart="164" departSpeed="15"/>
    <vehicle id="NS_193" type="car" route="NS" depart="164" departSpeed="15"/>
    <vehicle id="t3_194" type="car" route="t3" depart="164" departSpeed="15"/>
    <vehicle id="WETop_195" type="car" route="WETop" depart="165" departSpeed="15"/>
    <vehicle id="SN_196" type="car" route="SN" depart="166" departSpeed="15"/>
    <vehicle id="WEBottom_197" type="car" route="WEBottom" depart="167" departSpeed="15"/>
    <vehicle id="SN_198" type="car" route="SN" depart="167" departSpeed="15"/>
    <vehicle id="SN_199" type="car" route="SN" depart="168" departSpeed="15"/>
    <vehicle id="t4_200" type="car" route="t4" depart="168" departSpeed="15"/>
    <vehicle id="t3_201" type="car" route="t3" depart="169" departSpeed="15"/>
    <vehicle id="NS_202" type="car" route="NS" depart="170" departSpeed="15"/>
    <vehicle id="t4_203" type="car" route="t4" depart="171" departSpeed="15"/>
    <vehicle id="t6_204" type="car" route="t6" depart="172" departSpeed="15"/>
    <vehicle id="SN_205" type="car" route="SN" depart="174" departSpeed="15"/>
    <vehicle id="t2_206" type="car" route="t2" depart="174" departSpeed="15"/>
    <vehicle id="t4_207" type="car" route="t4" depart="174" departSpeed="15"/>
    <vehicle id="t2_208" type="car" route="t2" depart="175" departSpeed="15"/>
    <vehicle id="t4_209" type="car" route="t4" depart="175" departSpeed="15"/>
    <vehicle id="NS_210" type="car" route="NS" depart="176" departSpeed="15"/>
    <vehicle id="t6_211" type="car" route="t6" depart="178" departSpeed="15"/>
    <vehicle id="NS_212" type="car" route="NS" depart="182" departSpeed="15"/>
    <vehicle id="t2_213" type="car" route="t2" depart="182" departSpeed="15"/>
    <vehicle id="WEBottom_214" type="car" route="WEBottom" depart="184" departSpeed="15"/>
    <vehicle id="t6_215" type="car" route="t6" depart="184" departSpeed="15"/>
    <vehicle id="t6_216" type="car" route="t6" depart="185" departSpeed="15"/>
    <vehicle id="EWBottom_217" type="car" route="EWBottom" depart="188" departSpeed="15"/>
    <vehicle id="WEBottom_218" type="car" route="WEBottom" depart="189" departSpeed="15"/>
    <vehicle id="EWBottom_219" type="car" route="EWBottom" depart="190" departSpeed="15"/>
    <vehicle id="t2_220" type="car" route="t2" depart="191" departSpeed="15"/>
    <vehicle id="EWBottom_221" type="car" route="EWBottom" depart="192" departSpeed="15"/>
    <vehicle id="t2_222" type="car" route="t2" depart="193" departSpeed="15"/>
    <vehicle id="EWBottom_223" type="car" route="EWBottom" depart="195" departSpeed="15"/>
    <vehicle id="EWBottom_224" type="car" route="EWBottom" depart="199" departSpeed="15"/>
    <vehicle id="t2_225" type="car" route="t2" depart="199" departSpeed="15"/>
    <vehicle id="t3_226" type="car" route="t3" depart="199" departSpeed="15"/>
    <vehicle id="SN_227" type="car" route="SN" depart="200" departSpeed="15"/>
    <vehicle id="t5_228" type="car" route="t5" depart="200" departSpeed="15"/>
    <vehicle id="WETop_229" type="car" route="WETop" depart="201" departSpeed="15"/>
    <vehicle id="WEBottom_230" type="car" route="WEBottom" depart="201" departSpeed="15"/>
    <vehicle id="WETop_231" type="car" route="WETop" depart="202" departSpeed="15"/>
    <vehicle id="EWBottom_232" type="car" route="EWBottom" depart="202" departSpeed="15"/>
    <vehicle id="t5_233" type="car" route="t5" depart="205" departSpeed="15"/>
    <vehicle id="EWTop_234" type="car" route="EWTop" depart="206" departSpeed="15"/>
    <vehicle id="t3_235" type="car" route="t3" depart="206" departSpeed="15"/>
    <vehicle id="t6_236" type="car" route="t6" depart="207" departSpeed="15"/>
    <vehicle id="WEBottom_237" type="car" route="WEBottom" depart="208" departSpeed="15"/>
    <vehicle id="WETop_238" type="car" route="WETop" depart="212" departSpeed="15"/>
    <vehicle id="WEBottom_239" type="car" route="WEBottom" depart="212" departSpeed="15"/>
    <vehicle id="t5_240" type="car" route="t5" depart="213" departSpeed="15"/>
    <vehicle id="EWTop_241" type="car" route="EWTop" depart="215" departSpeed="15"/>
    <vehicle id="EWTop_242" type="car" route="EWTop" depart="218" departSpeed="15"/>
    <vehicle id="NS_243" type="car" route="NS" depart="224" departSpeed="15"/>
    <vehicle id="WEBottom_244" type="car" route="WEBottom" depart="225" departSpeed="15"/>
    <vehicle id="WETop_245" type="car" route="WETop" depart="227" departSpeed="15"/>
    <vehicle id="SN_246" type="car" route="SN" depart="227" departSpeed="15"/>
    <vehicle id="NS_247" type="car" route="NS" depart="229" departSpeed="15"/>
    <vehicle id="WETop_248" type="car" route="WETop" depart="230" departSpeed="15"/>
    <vehicle id="t2_249" type="car" route="t2" depart="230" departSpeed="15"/>
    <vehicle id="SN_250" type="car" route="SN" depart="231" departSpeed="15"/>
    <vehicle id="EWBottom_251" type="car" route="EWBottom" depart="232" departSpeed="15"/>
    <vehicle id="t6_252" type="car" route="t6" depart="232" departSpeed="15"/>
    <vehicle id="NS_253" type="car" route="NS" depart="235" departSpeed="15"/>
    <vehicle id="NS_254" type="car" route="NS" depart="237" departSpeed="15"/>
    <vehicle id="t5_255" type="car" route="t5" depart="239" departSpeed="15"/>
    <vehicle id="EWTop_256" type="car" route="EWTop" depart="241" departSpeed="15"/>
    <vehicle id="EWTop_257" type="car" route="EWTop" depart="243" departSpeed="15"/>
    <vehicle id="t5_258" type="car" route="t5" depart="244" departSpeed="15"/>
    <vehicle id="t2_259" type="car" route="t2" depart="245" departSpeed="15"/>
    <vehicle id="t5_260" type="car" route="t5" depart="245" departSpeed="15"/>
    <vehicle id="WETop_261" type="car" route="WETop" depart="246" departSpeed="15"/>
    <vehicle id="EWTop_262" type="car" route="EWTop" depart="246" departSpeed="15"/>
    <vehicle id="EWTop_263" type="car" route="EWTop" depart="248" departSpeed="15"/>
    <vehicle id="EWBottom_264" type="car" route="EWBottom" depart="248" departSpeed="15"/>
    <vehicle id="SN_265" type="car" route="SN" depart="248" departSpeed="15"/>
    <vehicle id="WEBottom_266" type="car" route="WEBottom" depart="249" departSpeed="15"/>
    <vehicle id="SN_267" type="car" route="SN" depart="250" departSpeed="15"/>
    <vehicle id="t6_268" type="car" route="t6" depart="250" departSpeed="15"/>
    <vehicle id="WEBottom_269" type="car" route="WEBottom" depart="251" departSpeed="15"/>
    <vehicle id="WEBottom_270" type="car" route="WEBottom" depart="256" departSpeed="15"/>
    <vehicle id="SN_271" type="car" route="SN" depart="256" departSpeed="15"/>
    <vehicle id="SN_272" type="car" route="SN" depart="258" departSpeed="15"/>
    <vehicle id="EWTop_273" type="car" route="EWTop" depart="260" departSpeed="15"/>
    <vehicle id="t2_274" type="car" route="t2" depart="260" departSpeed="15"/>
    <vehicle id="t6_275" type="car" route="t6" depart="260" departSpeed="15"/>
    <vehicle id="t5_276" type="car" route="t5" depart="262" departSpeed="15"/>
    <vehicle id="NS_277" type="car" route="NS" depart="263" departSpeed="15"/>
    <vehicle id="WEBottom_278" type="car" route="WEBottom" depart="264" departSpeed="15"/>
    <vehicle id="SN_279" type="car" route="SN" depart="265" departSpeed="15"/>
    <vehicle id="SN_280" type="car" route="SN" depart="266" departSpeed="15"/>
    <vehicle id="EWTop_281" type="car" route="EWTop" depart="268" departSpeed="15"/>
    <vehicle id="t3_282" type="car" route="t3" depart="268" departSpeed="15"/>
    <vehicle id="WETop_283" type="car" route="WETop" depart="269" departSpeed="15"/>
    <vehicle id="EWTop_284" type="car" route="EWTop" depart="269" departSpeed="15"/>
    <vehicle id="WEBottom_285" type="car" route="WEBottom" depart="269" departSpeed="15"/>
    <vehicle id="NS_286" type="car" route="NS" depart="269" departSpeed="15"/>
    <vehicle id="t4_287" type="car" route="t4" depart="269" departSpeed="15"/>
    <vehicle id="t2_288" type="car" route="t2" depart="271" departSpeed="15"/>
    <vehicle id="EWBottom_289" type="car" route="EWBottom" depart="273" departSpeed="15"/>
    <vehicle id="SN_290" type="car" route="SN" depart="274" departSpeed="15"/>
    <vehicle id="t4_291" type="car" route="t4" depart="277" departSpeed="15"/>
    <vehicle id="WETop_292" type="car" route="WETop" depart="280" departSpeed="15"/>
    <vehicle id="t4_293" type="car" route="t4" depart="280" departSpeed="15"/>
    <vehicle id="t4_294" type="car" route="t4" depart="281" departSpeed="15"/>
    <vehicle id="EWBottom_295" type="car" route="EWBottom" depart="284" departSpeed="15"/>
    <vehicle id="t5_296" type="car" route="t5" depart="284" departSpeed="15"/>
    <vehicle id="EWTop_297" type="car" route="EWTop" depart="285" departSpeed="15"/>
    <vehicle id="NS_298" type="car" route="NS" depart="285" departSpeed="15"/>
    <vehicle id="SN_299" type="car" route="SN" depart="285" departSpeed="15"/>
    <vehicle id="t4_300" type="car" route="t4" depart="286" departSpeed="15"/>
    <vehicle id="EWBottom_301" type="car" route="EWBottom" depart="287" departSpeed="15"/>
    <vehicle id="t4_302" type="car" route="t4" depart="288" departSpeed="15"/>
    <vehicle id="SN_303" type="car" route="SN" depart="289" departSpeed="15"/>
    <vehicle id="t2_304" type="car" route="t2" depart="289" departSpeed="15"/>
    <vehicle id="t4_305" type="car" route="t4" depart="289" departSpeed="15"/>
    <vehicle id="WEBottom_306" type="car" route="WEBottom" depart="291" departSpeed="15"/>
    <vehicle id="WETop_307" type="car" route="WETop" depart="292" departSpeed="15"/>
    <vehicle id="WEBottom_308" type="car" route="WEBottom" depart="292" departSpeed="15"/>
    <vehicle id="t2_309" type="car" route="t2" depart="292" departSpeed="15"/>
    <vehicle id="WETop_310" type="car" route="WETop" depart="293" departSpeed="15"/>
    <vehicle id="WEBottom_311" type="car" route="WEBottom" depart="293" departSpeed="15"/>
    <vehicle id="EWBottom_312" type="car" route="EWBottom" depart="294" departSpeed="15"/>
    <vehicle id="NS_313" type="car" route="NS" depart="296" departSpeed="15"/>
    <vehicle id="t2_314" type="car" route="t2" depart="297" departSpeed="15"/>
    <vehicle id="t4_315" type="car" route="t4" depart="297" departSpeed="15"/>
    <vehicle id="EWBottom_316" type="car" route="EWBottom" depart="298" departSpeed="15"/>
    <vehicle id="t4_317" type="car" route="t4" depart="298" departSpeed="15"/>
    <vehicle id="t6_318" type="car" route="t6" depart="298" departSpeed="15"/>
    <vehicle id="EWTop_319" type="car" route="EWTop" depart="300" departSpeed="15"/>
    <vehicle id="t4_320" type="car" route="t4" depart="300" departSpeed="15"/>
    <vehicle id="EWBottom_321" type="car" route="EWBottom" depart="301" departSpeed="15"/>
    <vehicle id="t4_322" type="car" route="t4" depart="301" departSpeed="15"/>
    <vehicle id="EWTop_323" type="car" route="EWTop" depart="305" departSpeed="15"/>
    <vehicle id="NS_324" type="car" route="NS" depart="306" departSpeed="15"/>
    <vehicle id="t3_325" type="car" route="t3" depart="307" departSpeed="15"/>
    <vehicle id="WEBottom_326" type="car" route="WEBottom" depart="308" departSpeed="15"/>
    <vehicle id="t5_327" type="car" route="t5" depart="308" departSpeed="15"/>
    <vehicle id="WEBottom_328" type="car" route="WEBottom" depart="309" departSpeed="15"/>
    <vehicle id="EWBottom_329" type="car" route="EWBottom" depart="309" departSpeed="15"/>
    <vehicle id="t4_330" type="car" route="t4" depart="309" departSpeed="15"/>
    <vehicle id="WEBottom_331" type="car" route="WEBottom" depart="310" departSpeed="15"/>
    <vehicle id="t4_332" type="car" route="t4" depart="310" departSpeed="15"/>
    <vehicle id="WETop_333" type="car" route="WETop" depart="311" departSpeed="15"/>
    <vehicle id="NS_334" type="car" route="NS" depart="311" departSpeed="15"/>
    <vehicle id="SN_335" type="car" route="SN" depart="312" departSpeed="15"/>
    <vehicle id="t4_336" type="car" route="t4" depart="314" departSpeed="15"/>
    <vehicle id="t5_337" type="car" route="t5" depart="314" departSpeed="15"/>
    <vehicle id="t3_338" type="car" route="t3" depart="315" departSpeed="15"/>
    <vehicle id="EWBottom_339" type="car" route="EWBottom" depart="317" departSpeed="15"/>
    <vehicle id="EWTop_340" type="car" route="EWTop" depart="320" departSpeed="15"/>
    <vehicle id="t4_341" type="car" route="t4" depart="320" departSpeed="15"/>
    <vehicle id="WETop_342" type="car" route="WETop" depart="321" departSpeed="15"/>
    <vehicle id="t2_343" type="car" route="t2" depart="321" departSpeed="15"/>
    <vehicle id="t5_344" type="car" route="t5" depart="322" departSpeed="15"/>
    <vehicle id="t6_345" type="car" route="t6" depart="323" departSpeed="15"/>
    <vehicle id="WEBottom_346" type="car" route="WEBottom" depart="326" departSpeed="15"/>
    <vehicle id="t4_347" type="car" route="t4" depart="326" departSpeed="15"/>
    <vehicle id="WEBottom_348" type="car" route="WEBottom" depart="327" departSpeed="15"/>
    <vehicle id="EWBottom_349" type="car" route="EWBottom" depart="328" departSpeed="15"/>
    <vehicle id="NS_350" type="car" route="NS" depart="328" departSpeed="15"/>
    <vehicle id="t2_351" type="car" route="t2" depart="328" departSpeed="15"/>
    <vehicle id="t6_352" type="car" route="t6" depart="328" departSpeed="15"/>
    <vehicle id="t3_353" type="car" route="t3" depart="329" departSpeed="15"/>
    <vehicle id="NS_354" type="car" route="NS" depart="332" departSpeed="15"/>