<routes>
            <vType id="car" accel="1.0" decel="4.5" sigma="0.7" length="5" minGap="3" maxSpeed="15" guiShape="passenger"/>

            <route id="right" edges="1i 2o" />
            <route id="left" edges="2i 1o" />
            <route id="down" edges="4i 3o" />
            <route id="up" edges="3i 4o" />
    <vehicle id="down_0" type="car" route="down" depart="0" departSpeed="5"/>
    <vehicle id="up_1" type="car" route="up" depart="0" departSpeed="5"/>
    <vehicle id="down_2" type="car" route="down" depart="3" departSpeed="5"/>
    <vehicle id="up_3" type="car" route="up" depart="3" departSpeed="5"/>
    <vehicle id="right_4" type="car" route="right" depart="6" departSpeed="5"/>
    <vehicle id="up_5" type="car" route="up" depart="8" departSpeed="5"/>
    <vehicle id="down_6" type="car" route="down" depart="14" departSpeed="5"/>
    <vehicle id="down_7" type="car" route="down" depart="15" departSpeed="5"/>
    <vehicle id="left_8" type="car" route="left" depart="16" departSpeed="5"/>
    <vehicle id="right_9" type="car" route="right" depart="27" departSpeed="5"/>
    <vehicle id="up_10" type="car" route="up" depart="27" departSpeed="5"/>
    <vehicle id="left_11" type="car" route="left" depart="28" departSpeed="5"/>
    <vehicle id="right_12" type="car" route="right" depart="32" departSpeed="5"/>
    <vehicle id="up_13" type="car" route="up" depart="37" departSpeed="5"/>
    <vehicle id="up_14" type="car" route="up" depart="42" departSpeed="5"/>
    <vehicle id="right_15" type="car" route="right" depart="43" departSpeed="5"/>
    <vehicle id="down_16" type="car" route="down" depart="51" departSpeed="5"/>
    <vehicle id="up_17" type="car" route="up" depart="51" departSpeed="5"/>
    <vehicle id="up_18" type="car" route="up" depart="52" departSpeed="5"/>
    <vehicle id="right_19" type="car" route="right" depart="54" departSpeed="5"/>
    <vehicle id="down_20" type="car" route="down" depart="54" departSpeed="5"/>
    <vehicle id="left_21" type="car" route="left" depart="56" departSpeed="5"/>
    <vehicle id="down_22" type="car" route="down" depart="57" departSpeed="5"/>
    <vehicle id="down_23" type="car" route="down" depart="60" departSpeed="5"/>
    <vehicle id="left_24" type="car" route="left" depart="61" departSpeed="5"/>
    <vehicle id="down_25" type="car" route="down" depart="66" departSpeed="5"/>
    <vehicle id="up_26" type="car" route="up" depart="70" departSpeed="5"/>
    <vehicle id="right_27" type="car" route="right" depart="71" departSpeed="5"/>
    <vehicle id="right_28" type="car" route="right" depart="73" departSpeed="5"/>
    <vehicle id="down_29" type="car" route="down" depart="73" departSpeed="5"/>
    <vehicle id="up_30" type="car" route="up" depart="73" departSpeed="5"/>
    <vehicle id="left_31" type="car" route="left" depart="80" departSpeed="5"/>
    <vehicle id="down_32" type="car" route="down" depart="82" departSpeed="5"/>
    <vehicle id="up_33" type="car" route="up" depart="83" departSpeed="5"/>
    <vehicle id="left_34" type="car" route="left" depart="84" departSpeed="5"/>
    <vehicle id="down_35" type="car" route="down" depart="84" departSpeed="5"/>
    <vehicle id="right_36" type="car" route="right" depart="86" departSpeed="5"/>
    <vehicle id="left_37" type="car" route="left" depart="90" departSpeed="5"/>
    <vehicle id="right_38" type="car" route="right" depart="91" departSpeed="5"/>
    <vehicle id="up_39" type="car" route="up" depart="91" departSpeed="5"/>
    <vehicle id="left_40" type="car" route="left" depart="100" departSpeed="5"/>
    <vehicle id="left_41" type="car" route="left" depart="102" departSpeed="5"/>
    <vehicle id="down_42" type="car" route="down" depart="103" departSpeed="5"/>
    <vehicle id="right_43" type="car" route="right" depart="104" departSpeed="5"/>
    <vehicle id="up_44" type="car" route="up" depart="104" departSpeed="5"/>
    <vehicle id="down_45" type="car" route="down" depart="105" departSpeed="5"/>
    <vehicle id="down_46" type="car" route="down" depart="106" departSpeed="5"/>
    <vehicle id="down_47" type="car" route="down" depart="116" departSpeed="5"/>
    <vehicle id="right_48" type="car" route="right" depart="119" departSpeed="5"/>
    <vehicle id="right_49" type="car" route="right" depart="120" departSpeed="5"/>
    <vehicle id="left_50" type="car" route="left" depart="124" departSpeed="5"/>
    <vehicle id="left_51" type="car" route="left" depart="127" departSpeed="5"/>
    <vehicle id="down_52" type="car" route="down" depart="129" departSpeed="5"/>
    <vehicle id="left_53" type="car" route="left" depart="134" departSpeed="5"/>
    <vehicle id="left_54" type="car" route="left" depart="142" departSpeed="5"/>
    <vehicle id="right_55" type="car" route="right" depart="144" departSpeed="5"/>
    <vehicle id="down_56" type="car" route="down" depart="145" departSpeed="5"/>
    <vehicle id="right_57" type="car" route="right" depart="146" departSpeed="5"/>
    <vehicle id="down_58" type="car" route="down" depart="146" departSpeed="5"/>
    <vehicle id="right_59" type="car" route="right" depart="149" departSpeed="5"/>
    <vehicle id="left_60" type="car" route="left" depart="151" departSpeed="5"/>
    <vehicle id="right_61" type="car" route="right" depart="157" departSpeed="5"/>
    <vehicle id="up_62" type="car" route="up" depart="159" departSpeed="5"/>
    <vehicle id="left_63" type="car" route="left" depart="161" departSpeed="5"/>
    <vehicle id="down_64" type="car" route="down" depart="162" departSpeed="5"/>
    <vehicle id="right_65" type="car" route="right" depart="165" departSpeed="5"/>
    <vehicle id="up_66" type="car" route="up" depart="165" departSpeed="5"/>
    <vehicle id="up_67" type="car" route="up" depart="167" departSpeed="5"/>
    <vehicle id="left_68" type="car" route="left" depart="169" departSpeed="5"/>
    <vehicle id="up_69" type="car" route="up" depart="172" departSpeed="5"/>
    <vehicle id="right_70" type="car" route="right" depart="175" departSpeed="5"/>
    <vehicle id="down_71" type="car" route="down" depart="176" departSpeed="5"/>
    <vehicle id="up_72" type="car" route="up" depart="183" departSpeed="5"/>
    <vehicle id="left_73" type="car" route="left" depart="185" departSpeed="5"/>
    <vehicle id="right_74" type="car" route="right" depart="186" departSpeed="5"/>
    <vehicle id="up_75" type="car" route="up" depart="187" departSpeed="5"/>
    <vehicle id="left_76" type="car" route="left" depart="188" departSpeed="5"/>
    <vehicle id="down_77" type="car" route="down" depart="188" departSpeed="5"/>
    <vehicle id="right_78" type="car" route="right" depart="195" departSpeed="5"/>
    <vehicle id="right_79" type="car" route="right" depart="201" departSpeed="5"/>
    <vehicle id="up_80" type="car" route="up" depart="201" departSpeed="5"/>
    <vehicle id="down_81" type="car" route="down" depart="206" departSpeed="5"/>
    <vehicle id="down_82" type="car" route="down" depart="210" departSpeed="5"/>
    <vehicle id="right_83" type="car" route="right" depart="212" departSpeed="5"/>
    <vehicle id="down_84" type="car" route="down" depart="222" departSpeed="5"/>
    <vehicle id="up_85" type="car" route="up" depart="231" departSpeed="5"/>
    <vehicle id="up_86" type="car" route="up" depart="234" departSpeed="5"/>
    <vehicle id="left_87" type="car" route="left" depart="235" departSpeed="5"/>
    <vehicle id="up_88" type="car" route="up" depart="236" departSpeed="5"/>
    <vehicle id="left_89" type="car" route="left" depart="238" departSpeed="5"/>
    <vehicle id="up_90" type="car" route="up" depart="239" departSpeed="5"/>
    <vehicle id="down_91" type="car" route="down" depart="241" departSpeed="5"/>
    <vehicle id="right_92" type="car" route="right" depart="244" departSpeed="5"/>
    <vehicle id="left_93" type="car" route="left" depart="247" departSpeed="5"/>
    <vehicle id="left_94" type="car" route="left" depart="249" departSpeed="5"/>
    <vehicle id="down_95" type="car" route="down" depart="249" departSpeed="5"/>
    <vehicle id="left_96" type="car" route="left" depart="251" departSpeed="5"/>
    <vehicle id="right_97" type="car" route="right" depart="261" departSpeed="5"/>
    <vehicle id="left_98" type="car" route="left" depart="263" departSpeed="5"/>
    <vehicle id="right_99" type="car" route="right" depart="264" departSpeed="5"/>
    <vehicle id="down_100" type="car" route="down" depart="266" departSpeed="5"/>
    <vehicle id="up_101" type="car" route="up" depart="269" departSpeed="5"/>
    <vehicle id="left_102" type="car" route="left" depart="271" departSpeed="5"/>
    <vehicle id="up_103" type="car" route="up" depart="271" departSpeed="5"/>
    <vehicle id="down_104" type="car" route="down" depart="272" departSpeed="5"/>
    <vehicle id="right_105" type="car" route="right" depart="274" departSpeed="5"/>
    <vehicle id="left_106" type="car" route="left" depart="282" departSpeed="5"/>
    <vehicle id="up_107" type="car" route="up" depart="283" departSpeed="5"/>
    <vehicle id="down_108" type="car" route="down" depart="284" departSpeed="5"/>
    <vehicle id="up_109" type="car" route="up" depart="284" departSpeed="5"/>
    <vehicle id="right_110" type="car" route="right" depart="286" departSpeed="5"/>
    <vehicle id="right_111" type="car" route="right" depart="293" departSpeed="5"/>
    <vehicle id="down_112" type="car" route="down" depart="294" departSpeed="5"/>
    <vehicle id="down_113" type="car" route="down" depart="296" departSpeed="5"/>
    <vehicle id="up_114" type="car" route="up" depart="300" departSpeed="5"/>
    <vehicle id="down_115" type="car" route="down" depart="306" departSpeed="5"/>
    <vehicle id="up_116" type="car" route="up" depart="306" departSpeed="5"/>
    <vehicle id="up_117" type="car" route="up" depart="309" departSpeed="5"/>
    <vehicle id="up_118" type="car" route="up" depart="310" departSpeed="5"/>
    <vehicle id="left_119" type="car" route="left" depart="311" departSpeed="5"/>
    <vehicle id="right_120" type="car" route="right" depart="318" departSpeed="5"/>
    <vehicle id="down_121" type="car" route="down" depart="318" departSpeed="5"/>
    <vehicle id="right_122" type="car" route="right" depart="319" departSpeed="5"/>
    <vehicle id="left_123" type="car" route="left" depart="326" departSpeed="5"/>
    <vehicle id="up_124" type="car" route="up" depart="331" departSpeed="5"/>
    <vehicle id="right_125" type="car" route="right" depart="332" departSpeed="5"/>
    <vehicle id="up_126" type="car" route="up" depart="333" departSpeed="5"/>
    <vehicle id="left_127" type="car" route="left" depart="337" departSpeed="5"/>
    <vehicle id="up_128" type="car" route="up" depart="338" departSpeed="5"/>
    <vehicle id="up_129" type="car" route="up" depart="340" departSpeed="5"/>
    <vehicle id="down_130" type="car" route="down" depart="344" departSpeed="5"/>
    <vehicle id="right_131" type="car" route="right" depart="349" departSpeed="5"/>
    <vehicle id="left_132" type="car" route="left" depart="349" departSpeed="5"/>
    <vehicle id="left_133" type="car" route="left" depart="350" departSpeed="5"/>
    <vehicle id="up_134" type="car" route="up" depart="351" departSpeed="5"/>
    <vehicle id="left_135" type="car" route="left" depart="360" departSpeed="5"/>
    <vehicle id="right_136" type="car" route="right" depart="365" departSpeed="5"/>
    <vehicle id="down_137" type="car" route="down" depart="367" departSpeed="5"/>
    <vehicle id="left_138" type="car" route="left" depart="368" departSpeed="5"/>
    <vehicle id="down_139" type="car" route="down" depart="370" departSpeed="5"/>
    <vehicle id="down_140" type="car" route="down" depart="374" departSpeed="5"/>
    <vehicle id="left_141" type="car" route="left" depart="379" departSpeed="5"/>
    <vehicle id="up_142" type="car" route="up" depart="382" departSpeed="5"/>
    <vehicle id="left_143" type="car" route="left" depart="383" departSpeed="5"/>
    <vehicle id="down_144" type="car" route="down" depart="389" departSpeed="5"/>
    <vehicle id="right_145" type="car" route="right" depart="390" departSpeed="5"/>
    <vehicle id="down_146" type="car" route="down" depart="390" departSpeed="5"/>
    <vehicle id="down_147" type="car" route="down" depart="395" departSpeed="5"/>
    <vehicle id="right_148" type="car" route="right" depart="399" departSpeed="5"/>
    <vehicle id="up_149" type="car" route="up" depart="401" departSpeed="5"/>
    <vehicle id="up_150" type="car" route="up" depart="402" departSpeed="5"/>
    <vehicle id="down_151" type="car" route="down" depart="409" departSpeed="5"/>
    <vehicle id="up_152" type="car" route="up" depart="409" departSpeed="5"/>
    <vehicle id="left_153" type="car" route="left" depart="417" departSpeed="5"/>
    <vehicle id="right_154" type="car" route="right" depart="426" departSpeed="5"/>
    <vehicle id="left_155" type="car" route="left" depart="429" departSpeed="5"/>
    <vehicle id="down_156" type="car" route="down" depart="433" departSpeed="5"/>
    <vehicle id="up_157" type="car" route="up" depart="433" departSpeed="5"/>
    <vehicle id="left_158" type="car" route="left" depart="437" departSpeed="5"/>
    <vehicle id="down_159" type="car" route="down" depart="437" departSpeed="5"/>
    <vehicle id="up_160" type="car" route="up" depart="439" departSpeed="5"/>
    <vehicle id="down_161" type="car" route="down" depart="441" departSpeed="5"/>
    <vehicle id="right_162" type="car" route="right" depart="446" departSpeed="5"/>
    <vehicle id="up_163" type="car" route="up" depart="446" departSpeed="5"/>
    <vehicle id="right_164" type="car" route="right" depart="448" departSpeed="5"/>
    <vehicle id="down_165" type="car" route="down" depart="450" departSpeed="5"/>
    <vehicle id="up_166" type="car" route="up" depart="450" departSpeed="5"/>
    <vehicle id="left_167" type="car" route="left" depart="461" departSpeed="5"/>
    <vehicle id="left_168" type="car" route="left" depart="463" departSpeed="5"/>
    <vehicle id="up_169" type="car" route="up" depart="463" departSpeed="5"/>
    <vehicle id="right_170" type="car" route="right" depart="467" departSpeed="5"/>
    <vehicle id="right_171" type="car" route="right" depart="470" departSpeed="5"/>
    <vehicle id="up_172" type="car" route="up" depart="470" departSpeed="5"/>
    <vehicle id="down_173" type="car" route="down" depart="472" departSpeed="5"/>
    <vehicle id="down_174" type="car" route="down" depart="473" departSpeed="5"/>
    <vehicle id="right_175" type="car" route="right" depart="475" departSpeed="5"/>
    <vehicle id="up_176" type="car" route="up" depart="479" departSpeed="5"/>
    <vehicle id="left_177" type="car" route="left" depart="482" departSpeed="5"/>
    <vehicle id="right_178" type="car" route="right" depart="484" departSpeed="5"/>
    <vehicle id="down_179" type="car" route="down" depart="484" departSpeed="5"/>
    <vehicle id="left_180" type="car" route="left" depart="485" departSpeed="5"/>
    <vehicle id="left_181" type="car" route="left" depart="486" departSpeed="5"/>
    <vehicle id="down_182" type="car" route="down" depart="486" departSpeed="5"/>
    <vehicle id="left_183" type="car" route="left" depart="488" departSpeed="5"/>
    <vehicle id="right_184" type="car" route="right" depart="489" departSpeed="5"/>
    <vehicle id="up_185" type="car" route="up" depart="499" departSpeed="5"/>
    <vehicle id="left_186" type="car" route="left" depart="501" departSpeed="5"/>
    <vehicle id="down_187" type="car" route="down" depart="502" departSpeed="5"/>
    <vehicle id="left_188" type="car" route="left" depart="505" departSpeed="5"/>
    <vehicle id="up_189" type="car" route="up" depart="505" departSpeed="5"/>
    <vehicle id="left_190" type="car" route="left" depart="507" departSpeed="5"/>
    <vehicle id="up_191" type="car" route="up" depart="507" departSpeed="5"/>
    <vehicle id="down_192" type="car" route="down" depart="508" departSpeed="5"/>
    <vehicle id="right_193" type="car" route="right" depart="509" departSpeed="5"/>
    <vehicle id="left_194" type="car" route="left" depart="512" departSpeed="5"/>
    <vehicle id="down_195" type="car" route="down" depart="513" departSpeed="5"/>
    <vehicle id="right_196" type="car" route="right" depart="514" departSpeed="5"/>
    <vehicle id="right_197" type="car" route="right" depart="515" departSpeed="5"/>
    <vehicle id="down_198" type="car" route="down" depart="526" departSpeed="5"/>
    <vehicle id="right_199" type="car" route="right" depart="528" departSpeed="5"/>
    <vehicle id="down_200" type="car" route="down" depart="532" departSpeed="5"/>
    <vehicle id="up_201" type="car" route="up" depart="533" departSpeed="5"/>
    <vehicle id="left_202" type="car" route="left" depart="534" departSpeed="5"/>
    <vehicle id="up_203" type="car" route="up" depart="536" departSpeed="5"/>
    <vehicle id="down_204" type="car" route="down" depart="537" departSpeed="5"/>
    <vehicle id="right_205" type="car" route="right" depart="538" departSpeed="5"/>
    <vehicle id="up_206" type="car" route="up" depart="540" departSpeed="5"/>
    <vehicle id="right_207" type="car" route="right" depart="542" departSpeed="5"/>
    <vehicle id="left_208" type="car" route="left" depart="544" departSpeed="5"/>
    <vehicle id="up_209" type="car" route="up" depart="544" departSpeed="5"/>
    <vehicle id="up_210" type="car" route="up" depart="553" departSpeed="5"/>
    <vehicle id="right_211" type="car" route="right" depart="554" departSpeed="5"/>
    <vehicle id="down_212" type="car" route="down" depart="555" departSpeed="5"/>
    <vehicle id="left_213" type="car" route="left" depart="556" departSpeed="5"/>
    <vehicle id="up_214" type="car" route="up" depart="556" departSpeed="5"/>
    <vehicle id="right_215" type="car" route="right" depart="558" departSpeed="5"/>
    <vehicle id="right_216" type="car" route="right" depart="560" departSpeed="5"/>
    <vehicle id="up_217" type="car" route="up" depart="560" departSpeed="5"/>
    <vehicle id="right_218" type="car" route="right" depart="561" departSpeed="5"/>
    <vehicle id="right_219" type="car" route="right" depart="563" departSpeed="5"/>
    <vehicle id="up_220" type="car" route="up" depart="569" departSpeed="5"/>
    <vehicle id="up_221" type="car" route="up" depart="570" departSpeed="5"/>
    <vehicle id="right_222" type="car" route="right" depart="571" departSpeed="5"/>
    <vehicle id="left_223" type="car" route="left" depart="572" departSpeed="5"/>
    <vehicle id="up_224" type="car" route="up" depart="572" departSpeed="5"/>
    <vehicle id="up_225" type="car" route="up" depart="575" departSpeed="5"/>
    <vehicle id="left_226" type="car" route="left" depart="576" departSpeed="5"/>
    <vehicle id="down_227" type="car" route="down" depart="584" departSpeed="5"/>
    <vehicle id="up_228" type="car" route="up" depart="584" departSpeed="5"/>
    <vehicle id="left_229" type="car" route="left" depart="589" departSpeed="5"/>
    <vehicle id="right_230" type="car" route="right" depart="590" departSpeed="5"/>
    <vehicle id="right_231" type="car" route="right" depart="596" departSpeed="5"/>
    <vehicle id="down_232" type="car" route="down" depart="597" departSpeed="5"/>
    <vehicle id="down_233" type="car" route="down" depart="599" departSpeed="5"/>
    <vehicle id="down_234" type="car" route="down" depart="601" departSpeed="5"/>
    <vehicle id="left_235" type="car" route="left" depart="602" departSpeed="5"/>
    <vehicle id="up_236" type="car" route="up" depart="606" departSpeed="5"/>
    <vehicle id="up_237" type="car" route="up" depart="614" departSpeed="5"/>
    <vehicle id="down_238" type="car" route="down" depart="622" departSpeed="5"/>
    <vehicle id="right_239" type="car" route="right" depart="626" departSpeed="5"/>
    <vehicle id="down_240" type="car" route="down" depart="626" departSpeed="5"/>
    <vehicle id="right_241" type="car" route="right" depart="630" departSpeed="5"/>
    <vehicle id="right_242" type="car" route="right" depart="632" departSpeed="5"/>
    <vehicle id="up_243" type="car" route="up" depart="632" departSpeed="5"/>
    <vehicle id="up_244" type="car" route="up" depart="636" departSpeed="5"/>
    <vehicle id="down_245" type="car" route="down" depart="637" departSpeed="5"/>
    <vehicle id="left_246" type="car" route="left" depart="638" departSpeed="5"/>
    <vehicle id="up_247" type="car" route="up" depart="642" departSpeed="5"/>
    <vehicle id="left_248" type="car" route="left" depart="645" departSpeed="5"/>
    <vehicle id="up_249" type="car" route="up" depart="647" departSpeed="5"/>
    <vehicle id="up_250" type="car" route="up" depart="649" departSpeed="5"/>
    <vehicle id="down_251" type="car" route="down" depart="652" departSpeed="5"/>
    <vehicle id="right_252" type="car" route="right" depart="654" departSpeed="5"/>
    <vehicle id="left_253" type="car" route="left" depart="657" departSpeed="5"/>
    <vehicle id="down_254" type="car" route="down" depart="658" departSpeed="5"/>
    <vehicle id="down_255" type="car" route="down" depart="663" departSpeed="5"/>
    <vehicle id="down_256" type="car" route="down" depart="664" departSpeed="5"/>
    <vehicle id="down_257" type="car" route="down" depart="669" departSpeed="5"/>
    <vehicle id="left_258" type="car" route="left" depart="670" departSpeed="5"/>
    <vehicle id="left_259" type="car" route="left" depart="672" departSpeed="5"/>
    <vehicle id="down_260" type="car" route="down" depart="675" departSpeed="5"/>
    <vehicle id="down_261" type="car" route="down" depart="680" departSpeed="5"/>
    <vehicle id="up_262" type="car" route="up" depart="684" departSpeed="5"/>
    <vehicle id="right_263" type="car" route="right" depart="686" departSpeed="5"/>
    <vehicle id="up_264" type="car" route="up" depart="687" departSpeed="5"/>
    <vehicle id="down_265" type="car" route="down" depart="691" departSpeed="5"/>
    <vehicle id="up_266" type="car" route="up" depart="696" departSpeed="5"/>
    <vehicle id="left_267" type="car" route="left" depart="697" departSpeed="5"/>
    <vehicle id="down_268" type="car" route="down" depart="697" departSpeed="5"/>
    <vehicle id="down_269" type="car" route="down" depart="702" departSpeed="5"/>
    <vehicle id="down_270" type="car" route="down" depart="703" departSpeed="5"/>
    <vehicle id="down_271" type="car" route="down" depart="704" departSpeed="5"/>
    <vehicle id="up_272" type="car" route="up" depart="705" departSpeed="5"/>
    <vehicle id="left_273" type="car" route="left" depart="706" departSpeed="5"/>
    <vehicle id="right_274" type="car" route="right" depart="707" departSpeed="5"/>
    <vehicle id="up_275" type="car" route="up" depart="709" departSpeed="5"/>
    <vehicle id="right_276" type="car" route="right" depart="712" departSpeed="5"/>
    <vehicle id="up_277" type="car" route="up" depart="722" departSpeed="5"/>
    <vehicle id="right_278" type="car" route="right" depart="724" departSpeed="5"/>
    <vehicle id="right_279" type="car" route="right" depart="725" departSpeed="5"/>
    <vehicle id="right_280" type="car" route="right" depart="726" departSpeed="5"/>
    <vehicle id="left_281" type="car" route="left" depart="728" departSpeed="5"/>
    <vehicle id="up_282" type="car" route="up" depart="729" departSpeed="5"/>
    <vehicle id="left_283" type="car" route="left" depart="732" departSpeed="5"/>
    <vehicle id="up_284" type="car" route="up" depart="732" departSpeed="5"/>
    <vehicle id="left_285" type="car" route="left" depart="733" departSpeed="5"/>
    <vehicle id="left_286" type="car" route="left" depart="734" departSpeed="5"/>
    <vehicle id="down_287" type="car" route="down" depart="742" departSpeed="5"/>
    <vehicle id="down_288" type="car" route="down" depart="746" departSpeed="5"/>
    <vehicle id="left_289" type="car" route="left" depart="748" departSpeed="5"/>
    <vehicle id="down_290" type="car" route="down" depart="750" departSpeed="5"/>
    <vehicle id="down_291" type="car" route="down" depart="752" departSpeed="5"/>
    <vehicle id="left_292" type="car" route="left" depart="753" departSpeed="5"/>
    <vehicle id="left_293" type="car" route="left" depart="754" departSpeed="5"/>
    <vehicle id="right_294" type="car" route="right" depart="756" departSpeed="5"/>
    <vehicle id="down_295" type="car" route="down" depart="758" departSpeed="5"/>
    <vehicle id="up_296" type="car" route="up" depart="761" departSpeed="5"/>
    <vehicle id="down_297" type="car" route="down" depart="762" departSpeed="5"/>
    <vehicle id="up_298" type="car" route="up" depart="764" departSpeed="5"/>
    <vehicle id="left_299" type="car" route="left" depart="765" departSpeed="5"/>
    <vehicle id="down_300" type="car" route="down" depart="766" departSpeed="5"/>
    <vehicle id="down_301" type="car" route="down" depart="767" departSpeed="5"/>
    <vehicle id="right_302" type="car" route="right" depart="769" departSpeed="5"/>
    <vehicle id="down_303" type="car" route="down" depart="771" departSpeed="5"/>
    <vehicle id="up_304" type="car" route="up" depart="775" departSpeed="5"/>
    <vehicle id="right_305" type="car" route="right" depart="777" departSpeed="5"/>
    <vehicle id="down_306" type="car" route="down" depart="779" departSpeed="5"/>
    <vehicle id="right_307" type="car" route="right" depart="780" departSpeed="5"/>
    <vehicle id="left_308" type="car" route="left" depart="780" departSpeed="5"/>
    <vehicle id="up_309" type="car" route="up" depart="780" departSpeed="5"/>
    <vehicle id="up_310" type="car" route="up" depart="783" departSpeed="5"/>
    <vehicle id="down_311" type="car" route="down" depart="785" departSpeed="5"/>
    <vehicle id="left_312" type="car" route="left" depart="787" departSpeed="5"/>
    <vehicle id="up_313" type="car" route="up" depart="787" departSpeed="5"/>
    <vehicle id="right_314" type="car" route="right" depart="788" departSpeed="5"/>
    <vehicle id="down_315" type="car" route="down" depart="788" departSpeed="5"/>
    <vehicle id="up_316" type="car" route="up" depart="788" departSpeed="5"/>
    <vehicle id="right_317" type="car" route="right" depart="789" departSpeed="5"/>
    <vehicle id="right_318" type="car" route="right" depart="793" departSpeed="5"/>
    <vehicle id="down_319" type="car" route="down" depart="793" departSpeed="5"/>
    <vehicle id="right_320" type="car" route="right" depart="798" departSpeed="5"/>
    <vehicle id="left_321" type="car" route="left" depart="801" departSpeed="5"/>
    <vehicle id="down_322" type="car" route="down" depart="803" departSpeed="5"/>
    <vehicle id="up_323" type="car" route="up" depart="807" departSpeed="5"/>
    <vehicle id="right_324" type="car" route="right" depart="808" departSpeed="5"/>
    <vehicle id="left_325" type="car" route="left" depart="811" departSpeed="5"/>
    <vehicle id="left_326" type="car" route="left" depart="824" departSpeed="5"/>
    <vehicle id="down_327" type="car" route="down" depart="824" departSpeed="5"/>
    <vehicle id="down_328" type="car" route="down" depart="831" departSpeed="5"/>
    <vehicle id="left_329" type="car" route="left" depart="832" departSpeed="5"/>
    <vehicle id="left_330" type="car" route="left" depart="836" departSpeed="5"/>
    <vehicle id="right_331" type="car" route="right" depart="837" departSpeed="5"/>
    <vehicle id="up_332" type="car" route="up" depart="839" departSpeed="5"/>
    <vehicle id="down_333" type="car" route="down" depart="842" departSpeed="5"/>
    <vehicle id="right_334" type="car" route="right" depart="847" departSpeed="5"/>
    <vehicle id="down_335" type="car" route="down" depart="848" departSpeed="5"/>
    <vehicle id="right_336" type="car" route="right" depart="852" departSpeed="5"/>
    <vehicle id="left_337" type="car" route="left" depart="854" departSpeed="5"/>
    <vehicle id="left_338" type="car" route="left" depart="861" departSpeed="5"/>
    <vehicle id="left_339" type="car" route="left" depart="862" departSpeed="5"/>
    <vehicle id="up_340" type="car" route="up" depart="864" departSpeed="5"/>
    <vehicle id="up_341" type="car" route="up" depart="870" departSpeed="5"/>
    <vehicle id="left_342" type="car" route="left" depart="873" departSpeed="5"/>
    <vehicle id="up_343" type="car" route="up" depart="880" departSpeed="5"/>
    <vehicle id="left_344" type="car" route="left" depart="885" departSpeed="5"/>
    <vehicle id="right_345" type="car" route="right" depart="887" departSpeed="5"/>
    <vehicle id="left_346" type="car" route="left" depart="891" departSpeed="5"/>
    <vehicle id="up_347" type="car" route="up" depart="891" departSpeed="5"/>
    <vehicle id="right_348" type="car" route="right" depart="893" departSpeed="5"/>
    <vehicle id="left_349" type="car" route="left" depart="893" departSpeed="5"/>
    <vehicle id="up_350" type="car" route="up" depart="896" departSpeed="5"/>
    <vehicle id="right_351" type="car" route="right" depart="899" departSpeed="5"/>
    <vehicle id="left_352" type="car" route="left" depart="907" departSpeed="5"/>
    <vehicle id="down_353" type="car" route="down" depart="907" departSpeed="5"/>
    <vehicle id="up_354" type="car" route="up" depart="908" departSpeed="5"/>
    <vehicle id="right_355" type="car" route="right" depart="909" departSpeed="5"/>
    <vehicle id="down_356" type="car" route="down" depart="910" departSpeed="5"/>
    <vehicle id="right_357" type="car" route="right" depart="913" departSpeed="5"/>
    <vehicle id="down_358" type="car" route="down" depart="921" departSpeed="5"/>
    <vehicle id="right_359" type="car" route="right" depart="922" departSpeed="5"/>
    <vehicle id="up_360" type="car" route="up" depart="922" departSpeed="5"/>
    <vehicle id="left_361" type="car" route="left" depart="926" departSpeed="5"/>
    <vehicle id="right_362" type="car" route="right" depart="928" departSpeed="5"/>
    <vehicle id="up_363" type="car" route="up" depart="930" departSpeed="5"/>
    <vehicle id="up_364" type="car" route="up" depart="934" departSpeed="5"/>
    <vehicle id="up_365" type="car" route="up" depart="939" departSpeed="5"/>