<routes>
            <vType id="car" accel="1.0" decel="4.5" sigma="0.7" length="5" minGap="3" maxSpeed="15" guiShape="passenger"/>

            <route id="right" edges="1i 2o" />
            <route id="left" edges="2i 1o" />
            <route id="down" edges="4i 3o" />
            <route id="up" edges="3i 4o" />
    <vehicle id="right_0" type="car" route="right" depart="2" departSpeed="5"/>
    <vehicle id="down_1" type="car" route="down" depart="3" departSpeed="5"/>
    <vehicle id="left_2" type="car" route="left" depart="4" departSpeed="5"/>
    <vehicle id="down_3" type="car" route="down" depart="5" departSpeed="5"/>
    <vehicle id="right_4" type="car" route="right" depart="6" departSpeed="5"/>
    <vehicle id="down_5" type="car" route="down" depart="6" departSpeed="5"/>
    <vehicle id="right_6" type="car" route="right" depart="9" departSpeed="5"/>
    <vehicle id="down_7" type="car" route="down" depart="10" departSpeed="5"/>
    <vehicle id="down_8" type="car" route="down" depart="11" departSpeed="5"/>
    <vehicle id="down_9" type="car" route="down" depart="20" departSpeed="5"/>
    <vehicle id="right_10" type="car" route="right" depart="27" departSpeed="5"/>
    <vehicle id="left_11" type="car" route="left" depart="28" departSpeed="5"/>
    <vehicle id="down_12" type="car" route="down" depart="28" departSpeed="5"/>
    <vehicle id="right_13" type="car" route="right" depart="31" departSpeed="5"/>
    <vehicle id="down_14" type="car" route="down" depart="31" departSpeed="5"/>
    <vehicle id="right_15" type="car" route="right" depart="33" departSpeed="5"/>
    <vehicle id="down_16" type="car" route="down" depart="34" departSpeed="5"/>
    <vehicle id="left_17" type="car" route="left" depart="39" departSpeed="5"/>
    <vehicle id="right_18" type="car" route="right" depart="43" departSpeed="5"/>
    <vehicle id="up_19" type="car" route="up" depart="45" departSpeed="5"/>
    <vehicle id="right_20" type="car" route="right" depart="47" departSpeed="5"/>
    <vehicle id="left_21" type="car" route="left" depart="47" departSpeed="5"/>
    <vehicle id="right_22" type="car" route="right" depart="54" departSpeed="5"/>
    <vehicle id="right_23" type="car" route="right" depart="60" departSpeed="5"/>
    <vehicle id="down_24" type="car" route="down" depart="65" departSpeed="5"/>
    <vehicle id="left_25" type="car" route="left" depart="67" departSpeed="5"/>
    <vehicle id="up_26" type="car" route="up" depart="68" departSpeed="5"/>
    <vehicle id="up_27" type="car" route="up" depart="69" departSpeed="5"/>
    <vehicle id="right_28" type="car" route="right" depart="72" departSpeed="5"/>
    <vehicle id="down_29" type="car" route="down" depart="73" departSpeed="5"/>
    <vehicle id="left_30" type="car" route="left" depart="76" departSpeed="5"/>
    <vehicle id="down_31" type="car" route="down" depart="76" departSpeed="5"/>
    <vehicle id="left_32" type="car" route="left" depart="77" departSpeed="5"/>
    <vehicle id="down_33" type="car" route="down" depart="79" departSpeed="5"/>
    <vehicle id="right_34" type="car" route="right" depart="81" departSpeed="5"/>
    <vehicle id="right_35" type="car" route="right" depart="86" departSpeed="5"/>
    <vehicle id="down_36" type="car" route="down" depart="92" departSpeed="5"/>
    <vehicle id="up_37" type="car" route="up" depart="92" departSpeed="5"/>
    <vehicle id="right_38" type="car" route="right" depart="93" departSpeed="5"/>
    <vehicle id="right_39" type="car" route="right" depart="95" departSpeed="5"/>
    <vehicle id="down_40" type="car" route="down" depart="95" departSpeed="5"/>
    <vehicle id="down_41" type="car" route="down" depart="100" departSpeed="5"/>
    <vehicle id="left_42" type="car" route="left" depart="104" departSpeed="5"/>
    <vehicle id="up_43" type="car" route="up" depart="105" departSpeed="5"/>
    <vehicle id="left_44" type="car" route="left" depart="106" departSpeed="5"/>
    <vehicle id="down_45" type="car" route="down" depart="106" departSpeed="5"/>
    <vehicle id="left_46" type="car" route="left" depart="107" departSpeed="5"/>
    <vehicle id="down_47" type="car" route="down" depart="110" departSpeed="5"/>
    <vehicle id="left_48" type="car" route="left" depart="113" departSpeed="5"/>
    <vehicle id="left_49" type="car" route="left" depart="115" departSpeed="5"/>
    <vehicle id="down_50" type="car" route="down" depart="119" departSpeed="5"/>
    <vehicle id="up_51" type="car" route="up" depart="120" departSpeed="5"/>
    <vehicle id="left_52" type="car" route="left" depart="122" departSpeed="5"/>
    <vehicle id="up_53" type="car" route="up" depart="122" departSpeed="5"/>
    <vehicle id="up_54" type="car" route="up" depart="125" departSpeed="5"/>
    <vehicle id="down_55" type="car" route="down" depart="129" departSpeed="5"/>
    <vehicle id="up_56" type="car" route="up" depart="129" departSpeed="5"/>
    <vehicle id="down_57" type="car" route="down" depart="131" departSpeed="5"/>
    <vehicle id="left_58" type="car" route="left" depart="134" departSpeed="5"/>
    <vehicle id="down_59" type="car" route="down" depart="135" departSpeed="5"/>
    <vehicle id="up_60" type="car" route="up" depart="140" departSpeed="5"/>
    <vehicle id="left_61" type="car" route="left" depart="142" departSpeed="5"/>
    <vehicle id="right_62" type="car" route="right" depart="143" departSpeed="5"/>
    <vehicle id="up_63" type="car" route="up" depart="149" departSpeed="5"/>
    <vehicle id="up_64" type="car" route="up" depart="150" departSpeed="5"/>
    <vehicle id="left_65" type="car" route="left" depart="151" departSpeed="5"/>
    <vehicle id="down_66" type="car" route="down" depart="152" departSpeed="5"/>
    <vehicle id="up_67" type="car" route="up" depart="154" departSpeed="5"/>
    <vehicle id="down_68" type="car" route="down" depart="155" departSpeed="5"/>
    <vehicle id="right_69" type="car" route="right" depart="157" departSpeed="5"/>
    <vehicle id="down_70" type="car" route="down" depart="158" departSpeed="5"/>
    <vehicle id="down_71" type="car" route="down" depart="161" departSpeed="5"/>
    <vehicle id="up_72" type="car" route="up" depart="167" departSpeed="5"/>
    <vehicle id="right_73" type="car" route="right" depart="168" departSpeed="5"/>
    <vehicle id="down_74" type="car" route="down" depart="168" departSpeed="5"/>
    <vehicle id="up_75" type="car" route="up" depart="169" departSpeed="5"/>
    <vehicle id="right_76" type="car" route="right" depart="171" departSpeed="5"/>
    <vehicle id="down_77" type="car" route="down" depart="171" departSpeed="5"/>
    <vehicle id="up_78" type="car" route="up" depart="172" departSpeed="5"/>
    <vehicle id="left_79" type="car" route="left" depart="183" departSpeed="5"/>
    <vehicle id="right_80" type="car" route="right" depart="188" departSpeed="5"/>
    <vehicle id="right_81" type="car" route="right" depart="189" departSpeed="5"/>
    <vehicle id="left_82" type="car" route="left" depart="189" departSpeed="5"/>
    <vehicle id="up_83" type="car" route="up" depart="189" departSpeed="5"/>
    <vehicle id="right_84" type="car" route="right" depart="190" departSpeed="5"/>
    <vehicle id="right_85" type="car" route="right" depart="192" departSpeed="5"/>
    <vehicle id="left_86" type="car" route="left" depart="193" departSpeed="5"/>
    <vehicle id="up_87" type="car" route="up" depart="193" departSpeed="5"/>
    <vehicle id="right_88" type="car" route="right" depart="194" departSpeed="5"/>
    <vehicle id="up_89" type="car" route="up" depart="198" departSpeed="5"/>
    <vehicle id="right_90" type="car" route="right" depart="200" departSpeed="5"/>
    <vehicle id="left_91" type="car" route="left" depart="206" departSpeed="5"/>
    <vehicle id="right_92" type="car" route="right" depart="211" departSpeed="5"/>
    <vehicle id="left_93" type="car" route="left" depart="214" departSpeed="5"/>
    <vehicle id="left_94" type="car" route="left" depart="217" departSpeed="5"/>
    <vehicle id="down_95" type="car" route="down" depart="217" departSpeed="5"/>
    <vehicle id="up_96" type="car" route="up" depart="219" departSpeed="5"/>
    <vehicle id="left_97" type="car" route="left" depart="220" departSpeed="5"/>
    <vehicle id="left_98" type="car" route="left" depart="221" departSpeed="5"/>
    <vehicle id="down_99" type="car" route="down" depart="222" departSpeed="5"/>
    <vehicle id="down_100" type="car" route="down" depart="224" departSpeed="5"/>
    <vehicle id="up_101" type="car" route="up" depart="225" departSpeed="5"/>
    <vehicle id="right_102" type="car" route="right" depart="230" departSpeed="5"/>
    <vehicle id="left_103" type="car" route="left" depart="232" departSpeed="5"/>
    <vehicle id="left_104" type="car" route="left" depart="233" departSpeed="5"/>
    <vehicle id="up_105" type="car" route="up" depart="236" departSpeed="5"/>
    <vehicle id="left_106" type="car" route="left" depart="238" departSpeed="5"/>
    <vehicle id="right_107" type="car" route="right" depart="246" departSpeed="5"/>
    <vehicle id="right_108" type="car" route="right" depart="248" departSpeed="5"/>
    <vehicle id="right_109" type="car" route="right" depart="254" departSpeed="5"/>
    <vehicle id="left_110" type="car" route="left" depart="255" departSpeed="5"/>
    <vehicle id="down_111" type="car" route="down" depart="258" departSpeed="5"/>
    <vehicle id="down_112" type="car" route="down" depart="265" departSpeed="5"/>
    <vehicle id="down_113" type="car" route="down" depart="266" departSpeed="5"/>
    <vehicle id="up_114" type="car" route="up" depart="266" departSpeed="5"/>
    <vehicle id="up_115" type="car" route="up" depart="269" departSpeed="5"/>
    <vehicle id="left_116" type="car" route="left" depart="270" departSpeed="5"/>
    <vehicle id="right_117" type="car" route="right" depart="272" departSpeed="5"/>
    <vehicle id="up_118" type="car" route="up" depart="273" departSpeed="5"/>
    <vehicle id="left_119" type="car" route="left" depart="279" departSpeed="5"/>
    <vehicle id="down_120" type="car" route="down" depart="279" departSpeed="5"/>
    <vehicle id="down_121" type="car" route="down" depart="280" departSpeed="5"/>
    <vehicle id="left_122" type="car" route="left" depart="286" departSpeed="5"/>
    <vehicle id="down_123" type="car" route="down" depart="287" departSpeed="5"/>
    <vehicle id="down_124" type="car" route="down" depart="288" departSpeed="5"/>
    <vehicle id="down_125" type="car" route="down" depart="291" departSpeed="5"/>
    <vehicle id="up_126" type="car" route="up" depart="291" departSpeed="5"/>
    <vehicle id="left_127" type="car" route="left" depart="292" departSpeed="5"/>
    <vehicle id="down_128" type="car" route="down" depart="295" departSpeed="5"/>
    <vehicle id="left_129" type="car" route="left" depart="298" departSpeed="5"/>
    <vehicle id="down_130" type="car" route="down" depart="304" departSpeed="5"/>
    <vehicle id="up_131" type="car" route="up" depart="306" departSpeed="5"/>
    <vehicle id="right_132" type="car" route="right" depart="307" departSpeed="5"/>
    <vehicle id="up_133" type="car" route="up" depart="307" departSpeed="5"/>
    <vehicle id="left_134" type="car" route="left" depart="312" departSpeed="5"/>
    <vehicle id="down_135" type="car" route="down" depart="312" departSpeed="5"/>
    <vehicle id="left_136" type="car" route="left" depart="314" departSpeed="5"/>
    <vehicle id="down_137" type="car" route="down" depart="315" departSpeed="5"/>
    <vehicle id="right_138" type="car" route="right" depart="320" departSpeed="5"/>
    <vehicle id="up_139" type="car" route="up" depart="320" departSpeed="5"/>
    <vehicle id="down_140" type="car" route="down" depart="324" departSpeed="5"/>
    <vehicle id="left_141" type="car" route="left" depart="326" departSpeed="5"/>
    <vehicle id="right_142" type="car" route="right" depart="327" departSpeed="5"/>
    <vehicle id="left_143" type="car" route="left" depart="328" departSpeed="5"/>
    <vehicle id="left_144" type="car" route="left" depart="331" departSpeed="5"/>
    <vehicle id="right_145" type="car" route="right" depart="338" departSpeed="5"/>
    <vehicle id="right_146" type="car" route="right" depart="340" departSpeed="5"/>
    <vehicle id="right_147" type="car" route="right" depart="341" departSpeed="5"/>
    <vehicle id="down_148" type="car" route="down" depart="341" departSpeed="5"/>
    <vehicle id="left_149" type="car" route="left" depart="342" departSpeed="5"/>
    <vehicle id="right_150" type="car" route="right" depart="345" departSpeed="5"/>
    <vehicle id="down_151" type="car" route="down" depart="352" departSpeed="5"/>
    <vehicle id="up_152" type="car" route="up" depart="352" departSpeed="5"/>
    <vehicle id="down_153" type="car" route="down" depart="356" departSpeed="5"/>
    <vehicle id="up_154" type="car" route="up" depart="359" departSpeed="5"/>
    <vehicle id="right_155" type="car" route="right" depart="361" departSpeed="5"/>
    <vehicle id="left_156" type="car" route="left" depart="366" departSpeed="5"/>
    <vehicle id="down_157" type="car" route="down" depart="366" departSpeed="5"/>
    <vehicle id="right_158" type="car" route="right" depart="367" departSpeed="5"/>
    <vehicle id="down_159" type="car" route="down" depart="367" departSpeed="5"/>
    <vehicle id="down_160" type="car" route="down" depart="369" departSpeed="5"/>
    <vehicle id="up_161" type="car" route="up" depart="369" departSpeed="5"/>
    <vehicle id="up_162" type="car" route="up" depart="370" departSpeed="5"/>
    <vehicle id="right_163" type="car" route="right" depart="371" departSpeed="5"/>
    <vehicle id="left_164" type="car" route="left" depart="373" departSpeed="5"/>
    <vehicle id="down_165" type="car" route="down" depart="374" departSpeed="5"/>
    <vehicle id="down_166" type="car" route="down" depart="378" departSpeed="5"/>
    <vehicle id="right_167" type="car" route="right" depart="382" departSpeed="5"/>
    <vehicle id="down_168" type="car" route="down" depart="382" departSpeed="5"/>
    <vehicle id="right_169" type="car" route="right" depart="384" departSpeed="5"/>
    <vehicle id="down_170" type="car" route="down" depart="394" departSpeed="5"/>
    <vehicle id="left_171" type="car" route="left" depart="396" departSpeed="5"/>
    <vehicle id="up_172" type="car" route="up" depart="396" departSpeed="5"/>
    <vehicle id="down_173" type="car" route="down" depart="397" departSpeed="5"/>
    <vehicle id="up_174" type="car" route="up" depart="401" departSpeed="5"/>
    <vehicle id="right_175" type="car" route="right" depart="402" departSpeed="5"/>
    <vehicle id="up_176" type="car" route="up" depart="406" departSpeed="5"/>
    <vehicle id="down_177" type="car" route="down" depart="407" departSpeed="5"/>
    <vehicle id="down_178" type="car" route="down" depart="411" departSpeed="5"/>
    <vehicle id="left_179" type="car" route="left" depart="413" departSpeed="5"/>
    <vehicle id="right_180" type="car" route="right" depart="415" departSpeed="5"/>
    <vehicle id="down_181" type="car" route="down" depart="417" departSpeed="5"/>
    <vehicle id="up_182" type="car" route="up" depart="417" departSpeed="5"/>
    <vehicle id="up_183" type="car" route="up" depart="419" departSpeed="5"/>
    <vehicle id="up_184" type="car" route="up" depart="424" departSpeed="5"/>
    <vehicle id="left_185" type="car" route="left" depart="427" departSpeed="5"/>
    <vehicle id="right_186" type="car" route="right" depart="429" departSpeed="5"/>
    <vehicle id="down_187" type="car" route="down" depart="430" departSpeed="5"/>
    <vehicle id="right_188" type="car" route="right" depart="437" departSpeed="5"/>
    <vehicle id="left_189" type="car" route="left" depart="437" departSpeed="5"/>
    <vehicle id="right_190" type="car" route="right" depart="438" departSpeed="5"/>
    <vehicle id="right_191" type="car" route="right" depart="439" departSpeed="5"/>
    <vehicle id="left_192" type="car" route="left" depart="440" departSpeed="5"/>
    <vehicle id="down_193" type="car" route="down" depart="440" departSpeed="5"/>
    <vehicle id="left_194" type="car" route="left" depart="442" departSpeed="5"/>
    <vehicle id="right_195" type="car" route="right" depart="443" departSpeed="5"/>
    <vehicle id="left_196" type="car" route="left" depart="443" departSpeed="5"/>
    <vehicle id="down_197" type="car" route="down" depart="444" departSpeed="5"/>
    <vehicle id="down_198" type="car" route="down" depart="445" departSpeed="5"/>
    <vehicle id="right_199" type="car" route="right" depart="449" departSpeed="5"/>
    <vehicle id="down_200" type="car" route="down" depart="450" departSpeed="5"/>
    <vehicle id="left_201" type="car" route="left" depart="454" departSpeed="5"/>
    <vehicle id="up_202" type="car" route="up" depart="459" departSpeed="5"/>
    <vehicle id="down_203" type="car" route="down" depart="461" departSpeed="5"/>
    <vehicle id="right_204" type="car" route="right" depart="462" departSpeed="5"/>
    <vehicle id="right_205" type="car" route="right" depart="463" departSpeed="5"/>
    <vehicle id="right_206" type="car" route="right" depart="466" departSpeed="5"/>
    <vehicle id="left_207" type="car" route="left" depart="466" departSpeed="5"/>
    <vehicle id="right_208" type="car" route="right" depart="467" departSpeed="5"/>
    <vehicle id="up_209" type="car" route="up" depart="467" departSpeed="5"/>
    <vehicle id="up_210" type="car" route="up" depart="470" departSpeed="5"/>
    <vehicle id="right_211" type="car" route="right" depart="471" departSpeed="5"/>
    <vehicle id="down_212" type="car" route="down" depart="472" departSpeed="5"/>
    <vehicle id="right_213" type="car" route="right" depart="476" departSpeed="5"/>
    <vehicle id="left_214" type="car" route="left" depart="476" departSpeed="5"/>
    <vehicle id="right_215" type="car" route="right" depart="478" departSpeed="5"/>
    <vehicle id="down_216" type="car" route="down" depart="478" departSpeed="5"/>
    <vehicle id="down_217" type="car" route="down" depart="480" departSpeed="5"/>
    <vehicle id="up_218" type="car" route="up" depart="480" departSpeed="5"/>
    <vehicle id="up_219" type="car" route="up" depart="481" departSpeed="5"/>
    <vehicle id="left_220" type="car" route="left" depart="482" departSpeed="5"/>
    <vehicle id="down_221" type="car" route="down" depart="484" departSpeed="5"/>
    <vehicle id="down_222" type="car" route="down" depart="488" departSpeed="5"/>
    <vehicle id="left_223" type="car" route="left" depart="489" departSpeed="5"/>
    <vehicle id="up_224" type="car" route="up" depart="490" departSpeed="5"/>
    <vehicle id="right_225" type="car" route="right" depart="493" departSpeed="5"/>
    <vehicle id="down_226" type="car" route="down" depart="495" departSpeed="5"/>
    <vehicle id="right_227" type="car" route="right" depart="497" departSpeed="5"/>
    <vehicle id="down_228" type="car" route="down" depart="498" departSpeed="5"/>
    <vehicle id="right_229" type="car" route="right" depart="499" departSpeed="5"/>
    <vehicle id="right_230" type="car" route="right" depart="506" departSpeed="5"/>
    <vehicle id="up_231" type="car" route="up" depart="511" departSpeed="5"/>
    <vehicle id="down_232" type="car" route="down" depart="514" departSpeed="5"/>
    <vehicle id="down_233" type="car" route="down" depart="516" departSpeed="5"/>
    <vehicle id="left_234" type="car" route="left" depart="517" departSpeed="5"/>
    <vehicle id="right_235" type="car" route="right" depart="522" departSpeed="5"/>
    <vehicle id="up_236" type="car" route="up" depart="524" departSpeed="5"/>
    <vehicle id="left_237" type="car" route="left" depart="526" departSpeed="5"/>
    <vehicle id="right_238" type="car" route="right" depart="528" departSpeed="5"/>
    <vehicle id="up_239" type="car" route="up" depart="528" departSpeed="5"/>
    <vehicle id="up_240" type="car" route="up" depart="532" departSpeed="5"/>
    <vehicle id="up_241" type="car" route="up" depart="533" departSpeed="5"/>
    <vehicle id="left_242" type="car" route="left" depart="536" departSpeed="5"/>
    <vehicle id="left_243" type="car" route="left" depart="544" departSpeed="5"/>
    <vehicle id="down_244" type="car" route="down" depart="546" departSpeed="5"/>
    <vehicle id="left_245" type="car" route="left" depart="547" departSpeed="5"/>
    <vehicle id="down_246" type="car" route="down" depart="552" departSpeed="5"/>
    <vehicle id="left_247" type="car" route="left" depart="556" departSpeed="5"/>
    <vehicle id="down_248" type="car" route="down" depart="556" departSpeed="5"/>
    <vehicle id="left_249" type="car" route="left" depart="559" departSpeed="5"/>
    <vehicle id="left_250" type="car" route="left" depart="561" departSpeed="5"/>
    <vehicle id="left_251" type="car" route="left" depart="563" departSpeed="5"/>
    <vehicle id="left_252" type="car" route="left" depart="565" departSpeed="5"/>
    <vehicle id="right_253" type="car" route="right" depart="567" departSpeed="5"/>
    <vehicle id="left_254" type="car" route="left" depart="569" departSpeed="5"/>
    <vehicle id="left_255" type="car" route="left" depart="570" departSpeed="5"/>
    <vehicle id="right_256" type="car" route="right" depart="571" departSpeed="5"/>
    <vehicle id="left_257" type="car" route="left" depart="575" departSpeed="5"/>
    <vehicle id="up_258" type="car" route="up" depart="581" departSpeed="5"/>
    <vehicle id="left_259" type="car" route="left" depart="582" departSpeed="5"/>
    <vehicle id="left_260" type="car" route="left" depart="584" departSpeed="5"/>
    <vehicle id="left_261" type="car" route="left" depart="585" departSpeed="5"/>
    <vehicle id="up_262" type="car" route="up" depart="586" departSpeed="5"/>
    <vehicle id="down_263" type="car" route="down" depart="589" departSpeed="5"/>
    <vehicle id="right_264" type="car" route="right" depart="592" departSpeed="5"/>
    <vehicle id="right_265" type="car" route="right" depart="595" departSpeed="5"/>
    <vehicle id="left_266" type="car" route="left" depart="596" departSpeed="5"/>
    <vehicle id="right_267" type="car" route="right" depart="598" departSpeed="5"/>
    <vehicle id="up_268" type="car" route="up" depart="600" departSpeed="5"/>
    <vehicle id="right_269" type="car" route="right" depart="602" departSpeed="5"/>
    <vehicle id="left_270" type="car" route="left" depart="608" departSpeed="5"/>
    <vehicle id="right_271" type="car" route="right" depart="611" departSpeed="5"/>
    <vehicle id="up_272" type="car" route="up" depart="611" departSpeed="5"/>
    <vehicle id="left_273" type="car" route="left" depart="616" departSpeed="5"/>
    <vehicle id="left_274" type="car" route="left" depart="618" departSpeed="5"/>
    <vehicle id="down_275" type="car" route="down" depart="619" departSpeed="5"/>
    <vehicle id="left_276" type="car" route="left" depart="620" departSpeed="5"/>
    <vehicle id="left_277" type="car" route="left" depart="625" departSpeed="5"/>
    <vehicle id="up_278" type="car" route="up" depart="627" departSpeed="5"/>
    <vehicle id="right_279" type="car" route="right" depart="630" departSpeed="5"/>
    <vehicle id="up_280" type="car" route="up" depart="630" departSpeed="5"/>
    <vehicle id="down_281" type="car" route="down" depart="632" departSpeed="5"/>
    <vehicle id="down_282" type="car" route="down" depart="634" departSpeed="5"/>
    <vehicle id="up_283" type="car" route="up" depart="640" departSpeed="5"/>
    <vehicle id="right_284" type="car" route="right" depart="645" departSpeed="5"/>
    <vehicle id="right_285" type="car" route="right" depart="646" departSpeed="5"/>
    <vehicle id="left_286" type="car" route="left" depart="646" departSpeed="5"/>
    <vehicle id="up_287" type="car" route="up" depart="648" departSpeed="5"/>
    <vehicle id="left_288" type="car" route="left" depart="649" departSpeed="5"/>
    <vehicle id="down_289" type="car" route="down" depart="652" departSpeed="5"/>
    <vehicle id="right_290" type="car" route="right" depart="653" departSpeed="5"/>
    <vehicle id="down_291" type="car" route="down" depart="654" departSpeed="5"/>
    <vehicle id="up_292" type="car" route="up" depart="654" departSpeed="5"/>
    <vehicle id="down_293" type="car" route="down" depart="656" departSpeed="5"/>
    <vehicle id="down_294" type="car" route="down" depart="657" departSpeed="5"/>
    <vehicle id="left_295" type="car" route="left" depart="658" departSpeed="5"/>
    <vehicle id="left_296" type="car" route="left" depart="660" departSpeed="5"/>
    <vehicle id="right_297" type="car" route="right" depart="661" departSpeed="5"/>
    <vehicle id="left_298" type="car" route="left" depart="664" departSpeed="5"/>
    <vehicle id="up_299" type="car" route="up" depart="665" departSpeed="5"/>
    <vehicle id="right_300" type="car" route="right" depart="666" departSpeed="5"/>
    <vehicle id="left_301" type="car" route="left" depart="672" departSpeed="5"/>
    <vehicle id="up_302" type="car" route="up" depart="674" departSpeed="5"/>
    <vehicle id="down_303" type="car" route="down" depart="681" departSpeed="5"/>
    <vehicle id="up_304" type="car" route="up" depart="686" departSpeed="5"/>
    <vehicle id="up_305" type="car" route="up" depart="689" departSpeed="5"/>
    <vehicle id="left_306" type="car" route="left" depart="690" departSpeed="5"/>
    <vehicle id="right_307" type="car" route="right" depart="695" departSpeed="5"/>
    <vehicle id="down_308" type="car" route="down" depart="695" departSpeed="5"/>
    <vehicle id="up_309" type="car" route="up" depart="696" departSpeed="5"/>
    <vehicle id="up_310" type="car" route="up" depart="697" departSpeed="5"/>
    <vehicle id="right_311" type="car" route="right" depart="700" departSpeed="5"/>
    <vehicle id="up_312" type="car" route="up" depart="711" departSpeed="5"/>
    <vehicle id="down_313" type="car" route="down" depart="712" departSpeed="5"/>
    <vehicle id="left_314" type="car" route="left" depart="720" departSpeed="5"/>
    <vehicle id="right_315" type="car" route="right" depart="725" departSpeed="5"/>
    <vehicle id="left_316" type="car" route="left" depart="728" departSpeed="5"/>
    <vehicle id="up_317" type="car" route="up" depart="728" departSpeed="5"/>
    <vehicle id="down_318" type="car" route="down" depart="732" departSpeed="5"/>
    <vehicle id="up_319" type="car" route="up" depart="732" departSpeed="5"/>
    <vehicle id="right_320" type="car" route="right" depart="734" departSpeed="5"/>
    <vehicle id="up_321" type="car" route="up" depart="739" departSpeed="5"/>
    <vehicle id="up_322" type="car" route="up" depart="744" departSpeed="5"/>
    <vehicle id="down_323" type="car" route="down" depart="746" departSpeed="5"/>
    <vehicle id="right_324" type="car" route="right" depart="748" departSpeed="5"/>
    <vehicle id="right_325" type="car" route="right" depart="753" departSpeed="5"/>
    <vehicle id="left_326" type="car" route="left" depart="753" departSpeed="5"/>
    <vehicle id="right_327" type="car" route="right" depart="754" departSpeed="5"/>
    <vehicle id="down_328" type="car" route="down" depart="756" departSpeed="5"/>
    <vehicle id="left_329" type="car" route="left" depart="757" departSpeed="5"/>
    <vehicle id="up_330" type="car" route="up" depart="757" departSpeed="5"/>
    <vehicle id="up_331" type="car" route="up" depart="760" departSpeed="5"/>
    <vehicle id="left_332" type="car" route="left" depart="761" departSpeed="5"/>
    <vehicle id="right_333" type="car" route="right" depart="762" departSpeed="5"/>
    <vehicle id="left_334" type="car" route="left" depart="762" departSpeed="5"/>
    <vehicle id="left_335" type="car" route="left" depart="769" departSpeed="5"/>
    <vehicle id="up_336" type="car" route="up" depart="770" departSpeed="5"/>
    <vehicle id="up_337" type="car" route="up" depart="773" departSpeed="5"/>
    <vehicle id="up_338" type="car" route="up" depart="776" departSpeed="5"/>
    <vehicle id="left_339" type="car" route="left" depart="777" departSpeed="5"/>
    <vehicle id="right_340" type="car" route="right" depart="779" departSpeed="5"/>
    <vehicle id="left_341" type="car" route="left" depart="779" departSpeed="5"/>
    <vehicle id="right_342" type="car" route="right" depart="780" departSpeed="5"/>
    <vehicle id="up_343" type="car" route="up" depart="783" departSpeed="5"/>
    <vehicle id="right_344" type="car" route="right" depart="785" departSpeed="5"/>
    <vehicle id="left_345" type="car" route="left" depart="789" departSpeed="5"/>
    <vehicle id="up_346" type="car" route="up" depart="791" departSpeed="5"/>
    <vehicle id="right_347" type="car" route="right" depart="794" departSpeed="5"/>
    <vehicle id="left_348" type="car" route="left" depart="797" departSpeed="5"/>
    <vehicle id="right_349" type="car" route="right" depart="800" departSpeed="5"/>
    <vehicle id="left_350" type="car" route="left" depart="802" departSpeed="5"/>
    <vehicle id="down_351" type="car" route="down" depart="804" departSpeed="5"/>
    <vehicle id="left_352" type="car" route="left" depart="808" departSpeed="5"/>
    <vehicle id="down_353" type="car" route="down" depart="816" departSpeed="5"/>
    <vehicle id="up_354" type="car" route="up" depart="816" departSpeed="5"/>
    <vehicle id="down_355" type="car" route="down" depart="818" departSpeed="5"/>
    <vehicle id="left_356" type="car" route="left" depart="819" departSpeed="5"/>
    <vehicle id="down_357" type="car" route="down" depart="819" departSpeed="5"/>
    <vehicle id="up_358" type="car" route="up" depart="827" departSpeed="5"/>
    <vehicle id="right_359" type="car" route="right" depart="829" departSpeed="5"/>
    <vehicle id="up_360" type="car" route="up" depart="829" departSpeed="5"/>
    <vehicle id="left_361" type="car" route="left" depart="833" departSpeed="5"/>
    <vehicle id="left_362" type="car" route="left" depart="834" departSpeed="5"/>
    <vehicle id="down_363" type="car" route="down" depart="836" departSpeed="5"/>
    <vehicle id="left_364" type="car" route="left" depart="838" departSpeed="5"/>