<routes>
            <vType id="car" accel="1.0" decel="4.5" sigma="0.7" length="5" minGap="3" maxSpeed="15" guiShape="passenger"/>

            <route id="right" edges="1i 2o" />
            <route id="left" edges="2i 1o" />
            <route id="down" edges="4i 3o" />
            <route id="up" edges="3i 4o" />
    <vehicle id="down_0" type="car" route="down" depart="3" departSpeed="5"/>
    <vehicle id="down_1" type="car" route="down" depart="4" departSpeed="5"/>
    <vehicle id="down_2" type="car" route="down" depart="7" departSpeed="5"/>
    <vehicle id="up_3" type="car" route="up" depart="13" departSpeed="5"/>
    <vehicle id="up_4" type="car" route="up" depart="15" departSpeed="5"/>
    <vehicle id="right_5" type="car" route="right" depart="16" departSpeed="5"/>
    <vehicle id="down_6" type="car" route="down" depart="18" departSpeed="5"/>
    <vehicle id="up_7" type="car" route="up" depart="26" departSpeed="5"/>
    <vehicle id="down_8" type="car" route="down" depart="28" departSpeed="5"/>
    <vehicle id="right_9" type="car" route="right" depart="29" departSpeed="5"/>
    <vehicle id="down_10" type="car" route="down" depart="29" departSpeed="5"/>
    <vehicle id="down_11" type="car" route="down" depart="31" departSpeed="5"/>
    <vehicle id="up_12" type="car" route="up" depart="33" departSpeed="5"/>
    <vehicle id="down_13" type="car" route="down" depart="37" departSpeed="5"/>
    <vehicle id="up_14" type="car" route="up" depart="40" departSpeed="5"/>
    <vehicle id="up_15" type="car" route="up" depart="41" departSpeed="5"/>
    <vehicle id="right_16" type="car" route="right" depart="43" departSpeed="5"/>
    <vehicle id="up_17" type="car" route="up" depart="43" departSpeed="5"/>
    <vehicle id="up_18" type="car" route="up" depart="44" departSpeed="5"/>
    <vehicle id="left_19" type="car" route="left" depart="48" departSpeed="5"/>
    <vehicle id="down_20" type="car" route="down" depart="54" departSpeed="5"/>
    <vehicle id="up_21" type="car" route="up" depart="54" departSpeed="5"/>
    <vehicle id="left_22" type="car" route="left" depart="65" departSpeed="5"/>
    <vehicle id="down_23" type="car" route="down" depart="65" departSpeed="5"/>
    <vehicle id="up_24" type="car" route="up" depart="65" departSpeed="5"/>
    <vehicle id="down_25" type="car" route="down" depart="69" departSpeed="5"/>
    <vehicle id="down_26" type="car" route="down" depart="76" departSpeed="5"/>
    <vehicle id="down_27" type="car" route="down" depart="78" departSpeed="5"/>
    <vehicle id="down_28" type="car" route="down" depart="85" departSpeed="5"/>
    <vehicle id="right_29" type="car" route="right" depart="86" departSpeed="5"/>
    <vehicle id="up_30" type="car" route="up" depart="90" departSpeed="5"/>
    <vehicle id="left_31" type="car" route="left" depart="91" departSpeed="5"/>
    <vehicle id="right_32" type="car" route="right" depart="94" departSpeed="5"/>
    <vehicle id="right_33" type="car" route="right" depart="95" departSpeed="5"/>
    <vehicle id="down_34" type="car" route="down" depart="99" departSpeed="5"/>
    <vehicle id="down_35" type="car" route="down" depart="104" departSpeed="5"/>
    <vehicle id="right_36" type="car" route="right" depart="106" departSpeed="5"/>
    <vehicle id="down_37" type="car" route="down" depart="111" departSpeed="5"/>
    <vehicle id="left_38" type="car" route="left" depart="121" departSpeed="5"/>
    <vehicle id="up_39" type="car" route="up" depart="122" departSpeed="5"/>
    <vehicle id="left_40" type="car" route="left" depart="124" departSpeed="5"/>
    <vehicle id="right_41" type="car" route="right" depart="128" departSpeed="5"/>
    <vehicle id="left_42" type="car" route="left" depart="128" departSpeed="5"/>
    <vehicle id="left_43" type="car" route="left" depart="129" departSpeed="5"/>
    <vehicle id="left_44" type="car" route="left" depart="132" departSpeed="5"/>
    <vehicle id="left_45" type="car" route="left" depart="133" departSpeed="5"/>
    <vehicle id="down_46" type="car" route="down" depart="138" departSpeed="5"/>
    <vehicle id="left_47" type="car" route="left" depart="146" departSpeed="5"/>
    <vehicle id="down_48" type="car" route="down" depart="149" departSpeed="5"/>
    <vehicle id="down_49" type="car" route="down" depart="150" departSpeed="5"/>
    <vehicle id="left_50" type="car" route="left" depart="152" departSpeed="5"/>
    <vehicle id="left_51" type="car" route="left" depart="157" departSpeed="5"/>
    <vehicle id="up_52" type="car" route="up" depart="158" departSpeed="5"/>
    <vehicle id="up_53" type="car" route="up" depart="160" departSpeed="5"/>
    <vehicle id="right_54" type="car" route="right" depart="165" departSpeed="5"/>
    <vehicle id="left_55" type="car" route="left" depart="169" departSpeed="5"/>
    <vehicle id="right_56" type="car" route="right" depart="180" departSpeed="5"/>
    <vehicle id="up_57" type="car" route="up" depart="181" departSpeed="5"/>
    <vehicle id="down_58" type="car" route="down" depart="182" departSpeed="5"/>
    <vehicle id="down_59" type="car" route="down" depart="183" departSpeed="5"/>
    <vehicle id="up_60" type="car" route="up" depart="186" departSpeed="5"/>
    <vehicle id="down_61" type="car" route="down" depart="187" departSpeed="5"/>
    <vehicle id="down_62" type="car" route="down" depart="205" departSpeed="5"/>
    <vehicle id="right_63" type="car" route="right" depart="209" departSpeed="5"/>
    <vehicle id="down_64" type="car" route="down" depart="209" departSpeed="5"/>
    <vehicle id="up_65" type="car" route="up" depart="209" departSpeed="5"/>
    <vehicle id="down_66" type="car" route="down" depart="210" departSpeed="5"/>
    <vehicle id="down_67" type="car" route="down" depart="213" departSpeed="5"/>
    <vehicle id="right_68" type="car" route="right" depart="215" departSpeed="5"/>
    <vehicle id="right_69" type="car" route="right" depart="216" departSpeed="5"/>
    <vehicle id="up_70" type="car" route="up" depart="216" departSpeed="5"/>
    <vehicle id="right_71" type="car" route="right" depart="217" departSpeed="5"/>
    <vehicle id="down_72" type="car" route="down" depart="224" departSpeed="5"/>
    <vehicle id="down_73" type="car" route="down" depart="229" departSpeed="5"/>
    <vehicle id="up_74" type="car" route="up" depart="230" departSpeed="5"/>
    <vehicle id="down_75" type="car" route="down" depart="231" departSpeed="5"/>
    <vehicle id="down_76" type="car" route="down" depart="233" departSpeed="5"/>
    <vehicle id="up_77" type="car" route="up" depart="236" departSpeed="5"/>
    <vehicle id="up_78" type="car" route="up" depart="241" departSpeed="5"/>
    <vehicle id="left_79" type="car" route="left" depart="242" departSpeed="5"/>
    <vehicle id="up_80" type="car" route="up" depart="243" departSpeed="5"/>
    <vehicle id="left_81" type="car" route="left" depart="245" departSpeed="5"/>
    <vehicle id="left_82" type="car" route="left" depart="248" departSpeed="5"/>
    <vehicle id="right_83" type="car" route="right" depart="250" departSpeed="5"/>
    <vehicle id="left_84" type="car" route="left" depart="251" departSpeed="5"/>
    <vehicle id="left_85" type="car" route="left" depart="254" departSpeed="5"/>
    <vehicle id="left_86" type="car" route="left" depart="257" departSpeed="5"/>
    <vehicle id="up_87" type="car" route="up" depart="257" departSpeed="5"/>
    <vehicle id="down_88" type="car" route="down" depart="259" departSpeed="5"/>
    <vehicle id="down_89" type="car" route="down" depart="265" departSpeed="5"/>
    <vehicle id="left_90" type="car" route="left" depart="267" departSpeed="5"/>
    <vehicle id="up_91" type="car" route="up" depart="267" departSpeed="5"/>
    <vehicle id="left_92" type="car" route="left" depart="269" departSpeed="5"/>
    <vehicle id="up_93" type="car" route="up" depart="269" departSpeed="5"/>
    <vehicle id="down_94" type="car" route="down" depart="270" departSpeed="5"/>
    <vehicle id="up_95" type="car" route="up" depart="273" departSpeed="5"/>
    <vehicle id="down_96" type="car" route="down" depart="274" departSpeed="5"/>
    <vehicle id="left_97" type="car" route="left" depart="275" departSpeed="5"/>
    <vehicle id="right_98" type="car" route="right" depart="282" departSpeed="5"/>
    <vehicle id="right_99" type="car" route="right" depart="292" departSpeed="5"/>
    <vehicle id="down_100" type="car" route="down" depart="292" departSpeed="5"/>
    <vehicle id="up_101" type="car" route="up" depart="292" departSpeed="5"/>
    <vehicle id="down_102" type="car" route="down" depart="294" departSpeed="5"/>
    <vehicle id="right_103" type="car" route="right" depart="296" departSpeed="5"/>
    <vehicle id="right_104" type="car" route="right" depart="299" departSpeed="5"/>
    <vehicle id="down_105" type="car" route="down" depart="305" departSpeed="5"/>
    <vehicle id="left_106" type="car" route="left" depart="309" departSpeed="5"/>
    <vehicle id="up_107" type="car" route="up" depart="309" departSpeed="5"/>
    <vehicle id="right_108" type="car" route="right" depart="318" departSpeed="5"/>
    <vehicle id="left_109" type="car" route="left" depart="318" departSpeed="5"/>
    <vehicle id="down_110" type="car" route="down" depart="320" departSpeed="5"/>
    <vehicle id="right_111" type="car" route="right" depart="329" departSpeed="5"/>
    <vehicle id="left_112" type="car" route="left" depart="329" departSpeed="5"/>
    <vehicle id="up_113" type="car" route="up" depart="331" departSpeed="5"/>
    <vehicle id="right_114" type="car" route="right" depart="332" departSpeed="5"/>
    <vehicle id="left_115" type="car" route="left" depart="333" departSpeed="5"/>
    <vehicle id="right_116" type="car" route="right" depart="336" departSpeed="5"/>
    <vehicle id="left_117" type="car" route="left" depart="337" departSpeed="5"/>
    <vehicle id="up_118" type="car" route="up" depart="341" departSpeed="5"/>
    <vehicle id="right_119" type="car" route="right" depart="342" departSpeed="5"/>
    <vehicle id="up_120" type="car" route="up" depart="346" departSpeed="5"/>
    <vehicle id="right_121" type="car" route="right" depart="352" departSpeed="5"/>
    <vehicle id="right_122" type="car" route="right" depart="353" departSpeed="5"/>
    <vehicle id="up_123" type="car" route="up" depart="355" departSpeed="5"/>
    <vehicle id="left_124" type="car" route="left" depart="368" departSpeed="5"/>
    <vehicle id="down_125" type="car" route="down" depart="369" departSpeed="5"/>
    <vehicle id="up_126" type="car" route="up" depart="371" departSpeed="5"/>
    <vehicle id="right_127" type="car" route="right" depart="374" departSpeed="5"/>
    <vehicle id="up_128" type="car" route="up" depart="379" departSpeed="5"/>
    <vehicle id="right_129" type="car" route="right" depart="383" departSpeed="5"/>
    <vehicle id="up_130" type="car" route="up" depart="383" departSpeed="5"/>
    <vehicle id="right_131" type="car" route="right" depart="385" departSpeed="5"/>
    <vehicle id="down_132" type="car" route="down" depart="391" departSpeed="5"/>
    <vehicle id="down_133" type="car" route="down" depart="393" departSpeed="5"/>
    <vehicle id="left_134" type="car" route="left" depart="395" departSpeed="5"/>
    <vehicle id="left_135" type="car" route="left" depart="396" departSpeed="5"/>
    <vehicle id="down_136" type="car" route="down" depart="396" departSpeed="5"/>
    <vehicle id="right_137" type="car" route="right" depart="398" departSpeed="5"/>
    <vehicle id="left_138" type="car" route="left" depart="398" departSpeed="5"/>
    <vehicle id="down_139" type="car" route="down" depart="398" departSpeed="5"/>
    <vehicle id="left_140" type="car" route="left" depart="400" departSpeed="5"/>
    <vehicle id="right_141" type="car" route="right" depart="406" departSpeed="5"/>
    <vehicle id="up_142" type="car" route="up" depart="408" departSpeed="5"/>
    <vehicle id="left_143" type="car" route="left" depart="409" departSpeed="5"/>
    <vehicle id="left_144" type="car" route="left" depart="410" departSpeed="5"/>
    <vehicle id="right_145" type="car" route="right" depart="414" departSpeed="5"/>
    <vehicle id="up_146" type="car" route="up" depart="432" departSpeed="5"/>
    <vehicle id="left_147" type="car" route="left" depart="434" departSpeed="5"/>
    <vehicle id="up_148" type="car" route="up" depart="434" departSpeed="5"/>
    <vehicle id="right_149" type="car" route="right" depart="440" departSpeed="5"/>
    <vehicle id="right_150" type="car" route="right" depart="443" departSpeed="5"/>
    <vehicle id="down_151" type="car" route="down" depart="444" departSpeed="5"/>
    <vehicle id="up_152" type="car" route="up" depart="444" departSpeed="5"/>
    <vehicle id="up_153" type="car" route="up" depart="445" departSpeed="5"/>
    <vehicle id="right_154" type="car" route="right" depart="448" departSpeed="5"/>
    <vehicle id="up_155" type="car" route="up" depart="448" departSpeed="5"/>
    <vehicle id="down_156" type="car" route="down" depart="452" departSpeed="5"/>
    <vehicle id="right_157" type="car" route="right" depart="453" departSpeed="5"/>
    <vehicle id="up_158" type="car" route="up" depart="453" departSpeed="5"/>
    <vehicle id="down_159" type="car" route="down" depart="454" departSpeed="5"/>
    <vehicle id="down_160" type="car" route="down" depart="460" departSpeed="5"/>
    <vehicle id="right_161" type="car" route="right" depart="463" departSpeed="5"/>
    <vehicle id="left_162" type="car" route="left" depart="464" departSpeed="5"/>
    <vehicle id="down_163" type="car" route="down" depart="466" departSpeed="5"/>
    <vehicle id="left_164" type="car" route="left" depart="469" departSpeed="5"/>
    <vehicle id="down_165" type="car" route="down" depart="474" departSpeed="5"/>
    <vehicle id="up_166" type="car" route="up" depart="474" departSpeed="5"/>
    <vehicle id="down_167" type="car" route="down" depart="477" departSpeed="5"/>
    <vehicle id="right_168" type="car" route="right" depart="478" departSpeed="5"/>
    <vehicle id="right_169" type="car" route="right" depart="484" departSpeed="5"/>
    <vehicle id="down_170" type="car" route="down" depart="491" departSpeed="5"/>
    <vehicle id="right_171" type="car" route="right" depart="493" departSpeed="5"/>
    <vehicle id="up_172" type="car" route="up" depart="494" departSpeed="5"/>
    <vehicle id="up_173" type="car" route="up" depart="495" departSpeed="5"/>
    <vehicle id="down_174" type="car" route="down" depart="496" departSpeed="5"/>
    <vehicle id="up_175" type="car" route="up" depart="496" departSpeed="5"/>
    <vehicle id="down_176" type="car" route="down" depart="497" departSpeed="5"/>
    <vehicle id="right_177" type="car" route="right" depart="503" departSpeed="5"/>
    <vehicle id="left_178" type="car" route="left" depart="505" departSpeed="5"/>
    <vehicle id="right_179" type="car" route="right" depart="507" departSpeed="5"/>
    <vehicle id="right_180" type="car" route="right" depart="512" departSpeed="5"/>
    <vehicle id="right_181" type="car" route="right" depart="517" departSpeed="5"/>
    <vehicle id="right_182" type="car" route="right" depart="522" departSpeed="5"/>
    <vehicle id="right_183" type="car" route="right" depart="524" departSpeed="5"/>
    <vehicle id="right_184" type="car" route="right" depart="528" departSpeed="5"/>
    <vehicle id="left_185" type="car" route="left" depart="532" departSpeed="5"/>
    <vehicle id="down_186" type="car" route="down" depart="532" departSpeed="5"/>
    <vehicle id="down_187" type="car" route="down" depart="536" departSpeed="5"/>
    <vehicle id="right_188" type="car" route="right" depart="537" departSpeed="5"/>
    <vehicle id="left_189" type="car" route="left" depart="541" departSpeed="5"/>
    <vehicle id="up_190" type="car" route="up" depart="542" departSpeed="5"/>
    <vehicle id="right_191" type="car" route="right" depart="548" departSpeed="5"/>
    <vehicle id="down_192" type="car" route="down" depart="551" departSpeed="5"/>
    <vehicle id="up_193" type="car" route="up" depart="551" departSpeed="5"/>
    <vehicle id="left_194" type="car" route="left" depart="553" departSpeed="5"/>
    <vehicle id="right_195" type="car" route="right" depart="560" departSpeed="5"/>
    <vehicle id="right_196" type="car" route="right" depart="563" departSpeed="5"/>
    <vehicle id="up_197" type="car" route="up" depart="568" departSpeed="5"/>
    <vehicle id="up_198" type="car" route="up" depart="571" departSpeed="5"/>
    <vehicle id="right_199" type="car" route="right" depart="573" departSpeed="5"/>
    <vehicle id="down_200" type="car" route="down" depart="573" departSpeed="5"/>
    <vehicle id="right_201" type="car" route="right" depart="575" departSpeed="5"/>
    <vehicle id="down_202" type="car" route="down" depart="581" departSpeed="5"/>
    <vehicle id="right_203" type="car" route="right" depart="582" departSpeed="5"/>
    <vehicle id="up_204" type="car" route="up" depart="583" departSpeed="5"/>
    <vehicle id="down_205" type="car" route="down" depart="589" departSpeed="5"/>
    <vehicle id="up_206" type="car" route="up" depart="590" departSpeed="5"/>
    <vehicle id="up_207" type="car" route="up" depart="591" departSpeed="5"/>
    <vehicle id="right_208" type="car" route="right" depart="595" departSpeed="5"/>
    <vehicle id="left_209" type="car" route="left" depart="597" departSpeed="5"/>
    <vehicle id="left_210" type="car" route="left" depart="601" departSpeed="5"/>
    <vehicle id="left_211" type="car" route="left" depart="605" departSpeed="5"/>
    <vehicle id="down_212" type="car" route="down" depart="606" departSpeed="5"/>
    <vehicle id="left_213" type="car" route="left" depart="607" departSpeed="5"/>
    <vehicle id="right_214" type="car" route="right" depart="608" departSpeed="5"/>
    <vehicle id="left_215" type="car" route="left" depart="610" departSpeed="5"/>
    <vehicle id="up_216" type="car" route="up" depart="613" departSpeed="5"/>
    <vehicle id="right_217" type="car" route="right" depart="616" departSpeed="5"/>
    <vehicle id="up_218" type="car" route="up" depart="621" departSpeed="5"/>
    <vehicle id="down_219" type="car" route="down" depart="629" departSpeed="5"/>
    <vehicle id="down_220" type="car" route="down" depart="631" departSpeed="5"/>
    <vehicle id="up_221" type="car" route="up" depart="631" departSpeed="5"/>
    <vehicle id="right_222" type="car" route="right" depart="637" departSpeed="5"/>
    <vehicle id="down_223" type="car" route="down" depart="638" departSpeed="5"/>
    <vehicle id="up_224" type="car" route="up" depart="640" departSpeed="5"/>
    <vehicle id="right_225" type="car" route="right" depart="641" departSpeed="5"/>
    <vehicle id="left_226" type="car" route="left" depart="645" departSpeed="5"/>
    <vehicle id="up_227" type="car" route="up" depart="645" departSpeed="5"/>
    <vehicle id="right_228" type="car" route="right" depart="649" departSpeed="5"/>
    <vehicle id="up_229" type="car" route="up" depart="656" departSpeed="5"/>
    <vehicle id="right_230" type="car" route="right" depart="658" departSpeed="5"/>
    <vehicle id="down_231" type="car" route="down" depart="671" departSpeed="5"/>
    <vehicle id="left_232" type="car" route="left" depart="674" departSpeed="5"/>
    <vehicle id="left_233" type="car" route="left" depart="678" departSpeed="5"/>
    <vehicle id="right_234" type="car" route="right" depart="680" departSpeed="5"/>
    <vehicle id="right_235" type="car" route="right" depart="682" departSpeed="5"/>
    <vehicle id="right_236" type="car" route="right" depart="683" departSpeed="5"/>
    <vehicle id="right_237" type="car" route="right" depart="687" departSpeed="5"/>
    <vehicle id="left_238" type="car" route="left" depart="692" departSpeed="5"/>
    <vehicle id="left_239" type="car" route="left" depart="696" departSpeed="5"/>
    <vehicle id="down_240" type="car" route="down" depart="696" departSpeed="5"/>
    <vehicle id="down_241" type="car" route="down" depart="700" departSpeed="5"/>
    <vehicle id="right_242" type="car" route="right" depart="704" departSpeed="5"/>
    <vehicle id="up_243" type="car" route="up" depart="709" departSpeed="5"/>
    <vehicle id="right_244" type="car" route="right" depart="711" departSpeed="5"/>
    <vehicle id="down_245" type="car" route="down" depart="712" departSpeed="5"/>
    <vehicle id="up_246" type="car" route="up" depart="714" departSpeed="5"/>
    <vehicle id="left_247" type="car" route="left" depart="716" departSpeed="5"/>
    <vehicle id="up_248" type="car" route="up" depart="719" departSpeed="5"/>
    <vehicle id="up_249" type="car" route="up" depart="720" departSpeed="5"/>
    <vehicle id="left_250" type="car" route="left" depart="721" departSpeed="5"/>
    <vehicle id="down_251" type="car" route="down" depart="722" departSpeed="5"/>
    <vehicle id="right_252" type="car" route="right" depart="726" departSpeed="5"/>
    <vehicle id="left_253" type="car" route="left" depart="727" departSpeed="5"/>
    <vehicle id="down_254" type="car" route="down" depart="727" departSpeed="5"/>
    <vehicle id="up_255" type="car" route="up" depart="728" departSpeed="5"/>
    <vehicle id="up_256" type="car" route="up" depart="731" departSpeed="5"/>
    <vehicle id="right_257" type="car" route="right" depart="734" departSpeed="5"/>
    <vehicle id="right_258" type="car" route="right" depart="736" departSpeed="5"/>
    <vehicle id="left_259" type="car" route="left" depart="737" departSpeed="5"/>
    <vehicle id="left_260" type="car" route="left" depart="739" departSpeed="5"/>
    <vehicle id="down_261" type="car" route="down" depart="739" departSpeed="5"/>
    <vehicle id="right_262" type="car" route="right" depart="742" departSpeed="5"/>
    <vehicle id="left_263" type="car" route="left" depart="743" departSpeed="5"/>
    <vehicle id="down_264" type="car" route="down" depart="746" departSpeed="5"/>
    <vehicle id="up_265" type="car" route="up" depart="748" departSpeed="5"/>
    <vehicle id="up_266" type="car" route="up" depart="749" departSpeed="5"/>
    <vehicle id="down_267" type="car" route="down" depart="751" departSpeed="5"/>
    <vehicle id="left_268" type="car" route="left" depart="754" departSpeed="5"/>
    <vehicle id="down_269" type="car" route="down" depart="757" departSpeed="5"/>
    <vehicle id="left_270" type="car" route="left" depart="759" departSpeed="5"/>
    <vehicle id="left_271" type="car" route="left" depart="760" departSpeed="5"/>
    <vehicle id="right_272" type="car" route="right" depart="763" departSpeed="5"/>
    <vehicle id="up_273" type="car" route="up" depart="768" departSpeed="5"/>
    <vehicle id="left_274" type="car" route="left" depart="772" departSpeed="5"/>
    <vehicle id="right_275" type="car" route="right" depart="773" departSpeed="5"/>
    <vehicle id="right_276" type="car" route="right" depart="776" departSpeed="5"/>
    <vehicle id="down_277" type="car" route="down" depart="776" departSpeed="5"/>
    <vehicle id="down_278" type="car" route="down" depart="777" departSpeed="5"/>
    <vehicle id="down_279" type="car" route="down" depart="782" departSpeed="5"/>
    <vehicle id="left_280" type="car" route="left" depart="783" departSpeed="5"/>
    <vehicle id="up_281" type="car" route="up" depart="787" departSpeed="5"/>
    <vehicle id="right_282" type="car" route="right" depart="792" departSpeed="5"/>
    <vehicle id="right_283" type="car" route="right" depart="794" departSpeed="5"/>
    <vehicle id="down_284" type="car" route="down" depart="796" departSpeed="5"/>
    <vehicle id="right_285" type="car" route="right" depart="798" departSpeed="5"/>
    <vehicle id="up_286" type="car" route="up" depart="801" departSpeed="5"/>
    <vehicle id="right_287" type="car" route="right" depart="812" departSpeed="5"/>
    <vehicle id="right_288" type="car" route="right" depart="816" departSpeed="5"/>
    <vehicle id="left_289" type="car" route="left" depart="817" departSpeed="5"/>
    <vehicle id="right_290" type="car" route="right" depart="824" departSpeed="5"/>
    <vehicle id="right_291" type="car" route="right" depart="826" departSpeed="5"/>
    <vehicle id="right_292" type="car" route="right" depart="828" departSpeed="5"/>
    <vehicle id="down_293" type="car" route="down" depart="829" departSpeed="5"/>
    <vehicle id="up_294" type="car" route="up" depart="829" departSpeed="5"/>
    <vehicle id="up_295" type="car" route="up" depart="830" departSpeed="5"/>
    <vehicle id="left_296" type="car" route="left" depart="833" departSpeed="5"/>
    <vehicle id="right_297" type="car" route="right" depart="835" departSpeed="5"/>
    <vehicle id="left_298" type="car" route="left" depart="835" departSpeed="5"/>
    <vehicle id="left_299" type="car" route="left" depart="836" departSpeed="5"/>
    <vehicle id="left_300" type="car" route="left" depart="839" departSpeed="5"/>
    <vehicle id="up_301" type="car" route="up" depart="842" departSpeed="5"/>
    <vehicle id="left_302" type="car" route="left" depart="847" departSpeed="5"/>
    <vehicle id="up_303" type="car" route="up" depart="847" departSpeed="5"/>
    <vehicle id="left_304" type="car" route="left" depart="851" departSpeed="5"/>
    <vehicle id="up_305" type="car" route="up" depart="851" departSpeed="5"/>
    <vehicle id="left_306" type="car" route="left" depart="855" departSpeed="5"/>
    <vehicle id="left_307" type="car" route="left" depart="856" departSpeed="5"/>
    <vehicle id="down_308" type="car" route="down" depart="857" departSpeed="5"/>
    <vehicle id="up_309" type="car" route="up" depart="862" departSpeed="5"/>
    <vehicle id="left_310" type="car" route="left" depart="863" departSpeed="5"/>
    <vehicle id="up_311" type="car" route="up" depart="866" departSpeed="5"/>
    <vehicle id="right_312" type="car" route="right" depart="867" departSpeed="5"/>
    <vehicle id="left_313" type="car" route="left" depart="867" departSpeed="5"/>
    <vehicle id="down_314" type="car" route="down" depart="867" departSpeed="5"/>
    <vehicle id="right_315" type="car" route="right" depart="869" departSpeed="5"/>
    <vehicle id="up_316" type="car" route="up" depart="872" departSpeed="5"/>
    <vehicle id="down_317" type="car" route="down" depart="873" departSpeed="5"/>
    <vehicle id="up_318" type="car" route="up" depart="874" departSpeed="5"/>
    <vehicle id="up_319" type="car" route="up" depart="880" departSpeed="5"/>
    <vehicle id="right_320" type="car" route="right" depart="881" departSpeed="5"/>
    <vehicle id="left_321" type="car" route="left" depart="884" departSpeed="5"/>
    <vehicle id="up_322" type="car" route="up" depart="884" departSpeed="5"/>
    <vehicle id="up_323" type="car" route="up" depart="887" departSpeed="5"/>
    <vehicle id="up_324" type="car" route="up" depart="888" departSpeed="5"/>
    <vehicle id="right_325" type="car" route="right" depart="893" departSpeed="5"/>
    <vehicle id="left_326" type="car" route="left" depart="893" departSpeed="5"/>
    <vehicle id="left_327" type="car" route="left" depart="896" departSpeed="5"/>
    <vehicle id="down_328" type="car" route="down" depart="896" departSpeed="5"/>
    <vehicle id="up_329" type="car" route="up" depart="901" departSpeed="5"/>
    <vehicle id="right_330" type="car" route="right" depart="902" departSpeed="5"/>
    <vehicle id="up_331" type="car" route="up" depart="905" departSpeed="5"/>
    <vehicle id="up_332" type="car" route="up" depart="910" departSpeed="5"/>
    <vehicle id="left_333" type="car" route="left" depart="913" departSpeed="5"/>
    <vehicle id="left_334" type="car" route="left" depart="914" departSpeed="5"/>
    <vehicle id="left_335" type="car" route="left" depart="921" departSpeed="5"/>
    <vehicle id="right_336" type="car" route="right" depart="923" departSpeed="5"/>
    <vehicle id="left_337" type="car" route="left" depart="924" departSpeed="5"/>
    <vehicle id="right_338" type="car" route="right" depart="925" departSpeed="5"/>
    <vehicle id="down_339" type="car" route="down" depart="925" departSpeed="5"/>
    <vehicle id="down_340" type="car" route="down" depart="927" departSpeed="5"/>
    <vehicle id="right_341" type="car" route="right" depart="930" departSpeed="5"/>
    <vehicle id="right_342" type="car" route="right" depart="931" departSpeed="5"/>
    <vehicle id="up_343" type="car" route="up" depart="935" departSpeed="5"/>
    <vehicle id="up_344" type="car" route="up" depart="937" departSpeed="5"/>
    <vehicle id="left_345" type="car" route="left" depart="940" departSpeed="5"/>
    <vehicle id="down_346" type="car" route="down" depart="942" departSpeed="5"/>
    <vehicle id="down_347" type="car" route="down" depart="943" departSpeed="5"/>
    <vehicle id="down_348" type="car" route="down" depart="945" departSpeed="5"/>
    <vehicle id="left_349" type="car" route="left" depart="948" departSpeed="5"/>
    <vehicle id="left_350" type="car" route="left" depart="949" departSpeed="5"/>
    <vehicle id="up_351" type="car" route="up" depart="951" departSpeed="5"/>
    <vehicle id="up_352" type="car" route="up" depart="953" departSpeed="5"/>
    <vehicle id="right_353" type="car" route="right" depart="954" departSpeed="5"/>
    <vehicle id="right_354" type="car" route="right" depart="959" departSpeed="5"/>
    <vehicle id="up_355" type="car" route="up" depart="962" departSpeed="5"/>
    <vehicle id="up_356" type="car" route="up" depart="963" departSpeed="5"/>
    <vehicle id="left_357" type="car" route="left" depart="966" departSpeed="5"/>
    <vehicle id="down_358" type="car" route="down" depart="969" departSpeed="5"/>
    <vehicle id="up_359" type="car" route="up" depart="972" departSpeed="5"/>
    <vehicle id="down_360" type="car" route="down" depart="974" departSpeed="5"/>
    <vehicle id="right_361" type="car" route="right" depart="977" departSpeed="5"/>
    <vehicle id="up_362" type="car" route="up" depart="978" departSpeed="5"/>
    <vehicle id="left_363" type="car" route="left" depart="983" departSpeed="5"/>
    <vehicle id="left_364" type="car" route="left" depart="984" departSpeed="5"/>
    <vehicle id="down_365" type="car" route="down" depart="992" departSpeed="5"/>