<routes>
                               <vType id="car" accel="2.0" decel="8.5" sigma="0.7" length="5" minGap="3" maxSpeed="30" guiShape="passenger"/>

                               <route id="WETop" edges="5i 1i 2o" />
                               <route id="EWTop" edges="2i 1o 5o" />
                               <route id="NS" edges="4i 3o 8i" />
                               <route id="SN" edges="8o 3i 4o" />
                               <route id="WEBottom" edges="7o 11o" />
                               <route id="EWBottom" edges="11i 7i" />

                               <route id="t2" edges="8o 7i" />
                               <route id="t3" edges="4i 1o 6i" />
                               <route id="t4" edges="7o 3i 2o" />
                               <route id="t5" edges="6o 1i 4o" />
                               <route id="t6" edges="5i 1i 3o 11o" />
                               
    <vehicle id="EWBottom_0" type="car" route="EWBottom" depart="5" departSpeed="15"/>
    <vehicle id="t2_1" type="car" route="t2" depart="5" departSpeed="15"/>
    <vehicle id="WETop_2" type="car" route="WETop" depart="6" departSpeed="15"/>
    <vehicle id="WEBottom_3" type="car" route="WEBottom" depart="6" departSpeed="15"/>
    <vehicle id="t4_4" type="car" route="t4" depart="6" departSpeed="15"/>
    <vehicle id="SN_5" type="car" route="SN" depart="8" departSpeed="15"/>
    <vehicle id="t6_6" type="car" route="t6" depart="9" departSpeed="15"/>
    <vehicle id="NS_7" type="car" route="NS" depart="11" departSpeed="15"/>
    <vehicle id="t3_8" type="car" route="t3" depart="11" departSpeed="15"/>
    <vehicle id="t6_9" type="car" route="t6" depart="11" departSpeed="15"/>
    <vehicle id="NS_10" type="car" route="NS" depart="12" departSpeed="15"/>
    <vehicle id="t2_11" type="car" route="t2" depart="12" departSpeed="15"/>
    <vehicle id="t4_12" type="car" route="t4" depart="12" departSpeed="15"/>
    <vehicle id="t6_13" type="car" route="t6" depart="12" departSpeed="15"/>
    <vehicle id="EWTop_14" type="car" route="EWTop" depart="13" departSpeed="15"/>
    <vehicle id="t5_15" type="car" route="t5" depart="14" departSpeed="15"/>
    <vehicle id="SN_16" type="car" route="SN" depart="17" departSpeed="15"/>
    <vehicle id="t4_17" type="car" route="t4" depart="22" departSpeed="15"/>
    <vehicle id="t6_18" type="car" route="t6" depart="22" departSpeed="15"/>
    <vehicle id="NS_19" type="car" route="NS" depart="23" departSpeed="15"/>
    <vehicle id="t3_20" type="car" route="t3" depart="23" departSpeed="15"/>
    <vehicle id="t4_21" type="car" route="t4" depart="24" departSpeed="15"/>
    <vehicle id="WETop_22" type="car" route="WETop" depart="25" departSpeed="15"/>
    <vehicle id="WEBottom_23" type="car" route="WEBottom" depart="25" departSpeed="15"/>
    <vehicle id="SN_24" type="car" route="SN" depart="26" departSpeed="15"/>
    <vehicle id="t4_25" type="car" route="t4" depart="27" departSpeed="15"/>
    <vehicle id="t5_26" type="car" route="t5" depart="27" departSpeed="15"/>
    <vehicle id="SN_27" type="car" route="SN" depart="31" departSpeed="15"/>
    <vehicle id="SN_28" type="car" route="SN" depart="32" departSpeed="15"/>
    <vehicle id="t6_29" type="car" route="t6" depart="33" departSpeed="15"/>
    <vehicle id="EWBottom_30" type="car" route="EWBottom" depart="38" departSpeed="15"/>
    <vehicle id="t6_31" type="car" route="t6" depart="38" departSpeed="15"/>
    <vehicle id="EWTop_32" type="car" route="EWTop" depart="46" departSpeed="15"/>
    <vehicle id="WETop_33" type="car" route="WETop" depart="52" departSpeed="15"/>
    <vehicle id="t6_34" type="car" route="t6" depart="52" departSpeed="15"/>
    <vehicle id="EWBottom_35" type="car" route="EWBottom" depart="53" departSpeed="15"/>
    <vehicle id="WETop_36" type="car" route="WETop" depart="54" departSpeed="15"/>
    <vehicle id="WEBottom_37" type="car" route="WEBottom" depart="54" departSpeed="15"/>
    <vehicle id="t4_38" type="car" route="t4" depart="54" departSpeed="15"/>
    <vehicle id="EWBottom_39" type="car" route="EWBottom" depart="57" departSpeed="15"/>
    <vehicle id="EWTop_40" type="car" route="EWTop" depart="58" departSpeed="15"/>
    <vehicle id="t5_41" type="car" route="t5" depart="59" departSpeed="15"/>
    <vehicle id="NS_42" type="car" route="NS" depart="62" departSpeed="15"/>
    <vehicle id="t4_43" type="car" route="t4" depart="63" departSpeed="15"/>
    <vehicle id="WETop_44" type="car" route="WETop" depart="64" departSpeed="15"/>
    <vehicle id="t3_45" type="car" route="t3" depart="65" departSpeed="15"/>
    <vehicle id="t5_46" type="car" route="t5" depart="66" departSpeed="15"/>
    <vehicle id="t6_47" type="car" route="t6" depart="69" departSpeed="15"/>
    <vehicle id="t3_48" type="car" route="t3" depart="72" departSpeed="15"/>
    <vehicle id="NS_49" type="car" route="NS" depart="73" departSpeed="15"/>
    <vehicle id="NS_50" type="car" route="NS" depart="75" departSpeed="15"/>
    <vehicle id="SN_51" type="car" route="SN" depart="75" departSpeed="15"/>
    <vehicle id="EWBottom_52" type="car" route="EWBottom" depart="76" departSpeed="15"/>
    <vehicle id="EWTop_53" type="car" route="EWTop" depart="77" departSpeed="15"/>
    <vehicle id="EWBottom_54" type="car" route="EWBottom" depart="78" departSpeed="15"/>
    <vehicle id="t3_55" type="car" route="t3" depart="79" departSpeed="15"/>
    <vehicle id="t4_56" type="car" route="t4" depart="79" departSpeed="15"/>
    <vehicle id="EWBottom_57" type="car" route="EWBottom" depart="80" departSpeed="15"/>
    <vehicle id="t6_58" type="car" route="t6" depart="81" departSpeed="15"/>
    <vehicle id="NS_59" type="car" route="NS" depart="84" departSpeed="15"/>
    <vehicle id="t5_60" type="car" route="t5" depart="87" departSpeed="15"/>
    <vehicle id="NS_61" type="car" route="NS" depart="90" departSpeed="15"/>
    <vehicle id="t6_62" type="car" route="t6" depart="92" departSpeed="15"/>
    <vehicle id="WETop_63" type="car" route="WETop" depart="93" departSpeed="15"/>
    <vehicle id="t5_64" type="car" route="t5" depart="94" departSpeed="15"/>
    <vehicle id="WEBottom_65" type="car" route="WEBottom" depart="95" departSpeed="15"/>
    <vehicle id="t2_66" type="car" route="t2" depart="96" departSpeed="15"/>
    <vehicle id="t5_67" type="car" route="t5" depart="101" departSpeed="15"/>
    <vehicle id="t6_68" type="car" route="t6" depart="103" departSpeed="15"/>
    <vehicle id="EWBottom_69" type="car" route="EWBottom" depart="105" departSpeed="15"/>
    <vehicle id="SN_70" type="car" route="SN" depart="109" departSpeed="15"/>
    <vehicle id="t3_71" type="car" route="t3" depart="110" departSpeed="15"/>
    <vehicle id="t6_72" type="car" route="t6" depart="110" departSpeed="15"/>
    <vehicle id="NS_73" type="car" route="NS" depart="112" departSpeed="15"/>
    <vehicle id="t2_74" type="car" route="t2" depart="116" departSpeed="15"/>
    <vehicle id="t4_75" type="car" route="t4" depart="117" departSpeed="15"/>
    <vehicle id="WEBottom_76" type="car" route="WEBottom" depart="121" departSpeed="15"/>
    <vehicle id="EWBottom_77" type="car" route="EWBottom" depart="121" departSpeed="15"/>
    <vehicle id="NS_78" type="car" route="NS" depart="121" departSpeed="15"/>
    <vehicle id="t6_79" type="car" route="t6" depart="122" departSpeed="15"/>
    <vehicle id="EWBottom_80" type="car" route="EWBottom" depart="124" departSpeed="15"/>
    <vehicle id="WETop_81" type="car" route="WETop" depart="126" departSpeed="15"/>
    <vehicle id="t4_82" type="car" route="t4" depart="126" departSpeed="15"/>
    <vehicle id="WETop_83" type="car" route="WETop" depart="128" departSpeed="15"/>
    <vehicle id="t4_84" type="car" route="t4" depart="128" departSpeed="15"/>
    <vehicle id="t3_85" type="car" route="t3" depart="130" departSpeed="15"/>
    <vehicle id="EWTop_86" type="car" route="EWTop" depart="132" departSpeed="15"/>
    <vehicle id="WEBottom_87" type="car" route="WEBottom" depart="132" departSpeed="15"/>
    <vehicle id="NS_88" type="car" route="NS" depart="132" departSpeed="15"/>
    <vehicle id="t2_89" type="car" route="t2" depart="138" departSpeed="15"/>
    <vehicle id="EWBottom_90" type="car" route="EWBottom" depart="139" departSpeed="15"/>
    <vehicle id="t4_91" type="car" route="t4" depart="140" departSpeed="15"/>
    <vehicle id="t5_92" type="car" route="t5" depart="140" departSpeed="15"/>
    <vehicle id="WEBottom_93" type="car" route="WEBottom" depart="141" departSpeed="15"/>
    <vehicle id="t5_94" type="car" route="t5" depart="141" departSpeed="15"/>
    <vehicle id="t6_95" type="car" route="t6" depart="141" departSpeed="15"/>
    <vehicle id="WETop_96" type="car" route="WETop" depart="146" departSpeed="15"/>
    <vehicle id="t6_97" type="car" route="t6" depart="146" departSpeed="15"/>
    <vehicle id="t6_98" type="car" route="t6" depart="148" departSpeed="15"/>
    <vehicle id="EWBottom_99" type="car" route="EWBottom" depart="152" departSpeed="15"/>
    <vehicle id="t3_100" type="car" route="t3" depart="156" departSpeed="15"/>
    <vehicle id="t3_101" type="car" route="t3" depart="157" departSpeed="15"/>
    <vehicle id="EWBottom_102" type="car" route="EWBottom" depart="158" departSpeed="15"/>
    <vehicle id="t2_103" type="car" route="t2" depart="158" departSpeed="15"/>
    <vehicle id="NS_104" type="car" route="NS" depart="161" departSpeed="15"/>
    <vehicle id="t3_105" type="car" route="t3" depart="161" departSpeed="15"/>
    <vehicle id="WETop_106" type="car" route="WETop" depart="162" departSpeed="15"/>
    <vehicle id="SN_107" type="car" route="SN" depart="165" departSpeed="15"/>
    <vehicle id="WETop_108" type="car" route="WETop" depart="169" departSpeed="15"/>
    <vehicle id="t4_109" type="car" route="t4" depart="170" departSpeed="15"/>
    <vehicle id="t5_110" type="car" route="t5" depart="170" departSpeed="15"/>
    <vehicle id="WETop_111" type="car" route="WETop" depart="172" departSpeed="15"/>
    <vehicle id="EWBottom_112" type="car" route="EWBottom" depart="173" departSpeed="15"/>
    <vehicle id="EWBottom_113" type="car" route="EWBottom" depart="174" departSpeed="15"/>
    <vehicle id="NS_114" type="car" route="NS" depart="175" departSpeed="15"/>
    <vehicle id="WEBottom_115" type="car" route="WEBottom" depart="176" departSpeed="15"/>
    <vehicle id="t5_116" type="car" route="t5" depart="177" departSpeed="15"/>
    <vehicle id="WETop_117" type="car" route="WETop" depart="180" departSpeed="15"/>
    <vehicle id="t5_118" type="car" route="t5" depart="181" departSpeed="15"/>
    <vehicle id="WETop_119" type="car" route="WETop" depart="182" departSpeed="15"/>
    <vehicle id="t5_120" type="car" route="t5" depart="183" departSpeed="15"/>
    <vehicle id="NS_121" type="car" route="NS" depart="187" departSpeed="15"/>
    <vehicle id="t2_122" type="car" route="t2" depart="187" departSpeed="15"/>
    <vehicle id="t6_123" type="car" route="t6" depart="189" departSpeed="15"/>
    <vehicle id="SN_124" type="car" route="SN" depart="192" departSpeed="15"/>
    <vehicle id="EWBottom_125" type="car" route="EWBottom" depart="193" departSpeed="15"/>
    <vehicle id="t6_126" type="car" route="t6" depart="193" departSpeed="15"/>
    <vehicle id="WEBottom_127" type="car" route="WEBottom" depart="195" departSpeed="15"/>
    <vehicle id="WEBottom_128" type="car" route="WEBottom" depart="197" departSpeed="15"/>
    <vehicle id="t2_129" type="car" route="t2" depart="197" departSpeed="15"/>
    <vehicle id="EWBottom_130" type="car" route="EWBottom" depart="198" departSpeed="15"/>
    <vehicle id="NS_131" type="car" route="NS" depart="200" departSpeed="15"/>
    <vehicle id="t6_132" type="car" route="t6" depart="200" departSpeed="15"/>
    <vehicle id="EWBottom_133" type="car" route="EWBottom" depart="202" departSpeed="15"/>
    <vehicle id="EWBottom_134" type="car" route="EWBottom" depart="203" departSpeed="15"/>
    <vehicle id="NS_135" type="car" route="NS" depart="203" departSpeed="15"/>
    <vehicle id="t6_136" type="car" route="t6" depart="203" departSpeed="15"/>
    <vehicle id="NS_137" type="car" route="NS" depart="206" departSpeed="15"/>
    <vehicle id="t4_138" type="car" route="t4" depart="206" departSpeed="15"/>
    <vehicle id="t5_139" type="car" route="t5" depart="206" departSpeed="15"/>
    <vehicle id="t6_140" type="car" route="t6" depart="207" departSpeed="15"/>
    <vehicle id="EWTop_141" type="car" route="EWTop" depart="209" departSpeed="15"/>
    <vehicle id="WEBottom_142" type="car" route="WEBottom" depart="209" departSpeed="15"/>
    <vehicle id="t2_143" type="car" route="t2" depart="209" departSpeed="15"/>
    <vehicle id="WETop_144" type="car" route="WETop" depart="211" departSpeed="15"/>
    <vehicle id="t2_145" type="car" route="t2" depart="215" departSpeed="15"/>
    <vehicle id="t6_146" type="car" route="t6" depart="215" departSpeed="15"/>
    <vehicle id="WETop_147" type="car" route="WETop" depart="216" departSpeed="15"/>
    <vehicle id="SN_148" type="car" route="SN" depart="216" departSpeed="15"/>
    <vehicle id="t2_149" type="car" route="t2" depart="216" departSpeed="15"/>
    <vehicle id="t4_150" type="car" route="t4" depart="219" departSpeed="15"/>
    <vehicle id="EWTop_151" type="car" route="EWTop" depart="220" departSpeed="15"/>
    <vehicle id="t6_152" type="car" route="t6" depart="220" departSpeed="15"/>
    <vehicle id="WEBottom_153" type="car" route="WEBottom" depart="221" departSpeed="15"/>
    <vehicle id="NS_154" type="car" route="NS" depart="223" departSpeed="15"/>
    <vehicle id="EWTop_155" type="car" route="EWTop" depart="224" departSpeed="15"/>
    <vehicle id="EWBottom_156" type="car" route="EWBottom" depart="224" departSpeed="15"/>
    <vehicle id="NS_157" type="car" route="NS" depart="224" departSpeed="15"/>
    <vehicle id="t6_158" type="car" route="t6" depart="225" departSpeed="15"/>
    <vehicle id="EWTop_159" type="car" route="EWTop" depart="226" departSpeed="15"/>
    <vehicle id="SN_160" type="car" route="SN" depart="226" departSpeed="15"/>
    <vehicle id="t5_161" type="car" route="t5" depart="228" departSpeed="15"/>
    <vehicle id="t3_162" type="car" route="t3" depart="230" departSpeed="15"/>
    <vehicle id="WEBottom_163" type="car" route="WEBottom" depart="231" departSpeed="15"/>
    <vehicle id="t2_164" type="car" route="t2" depart="237" departSpeed="15"/>
    <vehicle id="t4_165" type="car" route="t4" depart="243" departSpeed="15"/>
    <vehicle id="SN_166" type="car" route="SN" depart="245" departSpeed="15"/>
    <vehicle id="NS_167" type="car" route="NS" depart="246" departSpeed="15"/>
    <vehicle id="EWBottom_168" type="car" route="EWBottom" depart="249" departSpeed="15"/>
    <vehicle id="EWBottom_169" type="car" route="EWBottom" depart="250" departSpeed="15"/>
    <vehicle id="WEBottom_170" type="car" route="WEBottom" depart="252" departSpeed="15"/>
    <vehicle id="EWBottom_171" type="car" route="EWBottom" depart="253" departSpeed="15"/>
    <vehicle id="SN_172" type="car" route="SN" depart="253" departSpeed="15"/>
    <vehicle id="t2_173" type="car" route="t2" depart="257" departSpeed="15"/>
    <vehicle id="EWTop_174" type="car" route="EWTop" depart="258" departSpeed="15"/>
    <vehicle id="WEBottom_175" type="car" route="WEBottom" depart="258" departSpeed="15"/>
    <vehicle id="SN_176" type="car" route="SN" depart="258" departSpeed="15"/>
    <vehicle id="t5_177" type="car" route="t5" depart="258" departSpeed="15"/>
    <vehicle id="t3_178" type="car" route="t3" depart="263" departSpeed="15"/>
    <vehicle id="WETop_179" type="car" route="WETop" depart="265" departSpeed="15"/>
    <vehicle id="t6_180" type="car" route="t6" depart="268" departSpeed="15"/>
    <vehicle id="SN_181" type="car" route="SN" depart="269" departSpeed="15"/>
    <vehicle id="NS_182" type="car" route="NS" depart="270" departSpeed="15"/>
    <vehicle id="SN_183" type="car" route="SN" depart="270" departSpeed="15"/>
    <vehicle id="t2_184" type="car" route="t2" depart="270" departSpeed="15"/>
    <vehicle id="WEBottom_185" type="car" route="WEBottom" depart="271" departSpeed="15"/>
    <vehicle id="SN_186" type="car" route="SN" depart="272" departSpeed="15"/>
    <vehicle id="NS_187" type="car" route="NS" depart="274" departSpeed="15"/>
    <vehicle id="t3_188" type="car" route="t3" depart="274" departSpeed="15"/>
    <vehicle id="t4_189" type="car" route="t4" depart="274" departSpeed="15"/>
    <vehicle id="SN_190" type="car" route="SN" depart="275" departSpeed="15"/>
    <vehicle id="NS_191" type="car" route="NS" depart="278" departSpeed="15"/>
    <vehicle id="SN_192" type="car" route="SN" depart="280" departSpeed="15"/>
    <vehicle id="EWTop_193" type="car" route="EWTop" depart="283" departSpeed="15"/>
    <vehicle id="t5_194" type="car" route="t5" depart="283" departSpeed="15"/>
    <vehicle id="WETop_195" type="car" route="WETop" depart="284" departSpeed="15"/>
    <vehicle id="EWBottom_196" type="car" route="EWBottom" depart="285" departSpeed="15"/>
    <vehicle id="NS_197" type="car" route="NS" depart="286" departSpeed="15"/>
    <vehicle id="NS_198" type="car" route="NS" depart="288" departSpeed="15"/>
    <vehicle id="SN_199" type="car" route="SN" depart="289" departSpeed="15"/>
    <vehicle id="WETop_200" type="car" route="WETop" depart="290" departSpeed="15"/>
    <vehicle id="NS_201" type="car" route="NS" depart="290" departSpeed="15"/>
    <vehicle id="t6_202" type="car" route="t6" depart="291" departSpeed="15"/>
    <vehicle id="t3_203" type="car" route="t3" depart="292" departSpeed="15"/>
    <vehicle id="t6_204" type="car" route="t6" depart="293" departSpeed="15"/>
    <vehicle id="WETop_205" type="car" route="WETop" depart="295" departSpeed="15"/>
    <vehicle id="EWBottom_206" type="car" route="EWBottom" depart="296" departSpeed="15"/>
    <vehicle id="WEBottom_207" type="car" route="WEBottom" depart="297" departSpeed="15"/>
    <vehicle id="WEBottom_208" type="car" route="WEBottom" depart="298" departSpeed="15"/>
    <vehicle id="NS_209" type="car" route="NS" depart="300" departSpeed="15"/>
    <vehicle id="t2_210" type="car" route="t2" depart="300" departSpeed="15"/>
    <vehicle id="SN_211" type="car" route="SN" depart="304" departSpeed="15"/>
    <vehicle id="WEBottom_212" type="car" route="WEBottom" depart="306" departSpeed="15"/>
    <vehicle id="NS_213" type="car" route="NS" depart="306" departSpeed="15"/>
    <vehicle id="t4_214" type="car" route="t4" depart="307" departSpeed="15"/>
    <vehicle id="t2_215" type="car" route="t2" depart="308" departSpeed="15"/>
    <vehicle id="t3_216" type="car" route="t3" depart="309" departSpeed="15"/>
    <vehicle id="WETop_217" type="car" route="WETop" depart="311" departSpeed="15"/>
    <vehicle id="t6_218" type="car" route="t6" depart="311" departSpeed="15"/>
    <vehicle id="t3_219" type="car" route="t3" depart="312" departSpeed="15"/>
    <vehicle id="t5_220" type="car" route="t5" depart="313" departSpeed="15"/>
    <vehicle id="t3_221" type="car" route="t3" depart="315" departSpeed="15"/>
    <vehicle id="t5_222" type="car" route="t5" depart="317" departSpeed="15"/>
    <vehicle id="WEBottom_223" type="car" route="WEBottom" depart="319" departSpeed="15"/>
    <vehicle id="t2_224" type="car" route="t2" depart="321" departSpeed="15"/>
    <vehicle id="SN_225" type="car" route="SN" depart="322" departSpeed="15"/>
    <vehicle id="SN_226" type="car" route="SN" depart="324" departSpeed="15"/>
    <vehicle id="t3_227" type="car" route="t3" depart="325" departSpeed="15"/>
    <vehicle id="t3_228" type="car" route="t3" depart="326" departSpeed="15"/>
    <vehicle id="EWBottom_229" type="car" route="EWBottom" depart="327" departSpeed="15"/>
    <vehicle id="SN_230" type="car" route="SN" depart="327" departSpeed="15"/>
    <vehicle id="NS_231" type="car" route="NS" depart="328" departSpeed="15"/>
    <vehicle id="WEBottom_232" type="car" route="WEBottom" depart="331" departSpeed="15"/>
    <vehicle id="t3_233" type="car" route="t3" depart="332" departSpeed="15"/>
    <vehicle id="NS_234" type="car" route="NS" depart="336" departSpeed="15"/>
    <vehicle id="t2_235" type="car" route="t2" depart="340" departSpeed="15"/>
    <vehicle id="EWTop_236" type="car" route="EWTop" depart="346" departSpeed="15"/>
    <vehicle id="WETop_237" type="car" route="WETop" depart="349" departSpeed="15"/>
    <vehicle id="EWTop_238" type="car" route="EWTop" depart="349" departSpeed="15"/>
    <vehicle id="t5_239" type="car" route="t5" depart="352" departSpeed="15"/>
    <vehicle id="t2_240" type="car" route="t2" depart="354" departSpeed="15"/>
    <vehicle id="EWBottom_241" type="car" route="EWBottom" depart="355" departSpeed="15"/>
    <vehicle id="EWBottom_242" type="car" route="EWBottom" depart="357" departSpeed="15"/>
    <vehicle id="t3_243" type="car" route="t3" depart="359" departSpeed="15"/>
    <vehicle id="t4_244" type="car" route="t4" depart="365" departSpeed="15"/>
    <vehicle id="t2_245" type="car" route="t2" depart="366" departSpeed="15"/>
    <vehicle id="EWTop_246" type="car" route="EWTop" depart="367" departSpeed="15"/>
    <vehicle id="t5_247" type="car" route="t5" depart="369" departSpeed="15"/>
    <vehicle id="EWTop_248" type="car" route="EWTop" depart="370" departSpeed="15"/>
    <vehicle id="t2_249" type="car" route="t2" depart="371" departSpeed="15"/>
    <vehicle id="WEBottom_250" type="car" route="WEBottom" depart="373" departSpeed="15"/>
    <vehicle id="NS_251" type="car" route="NS" depart="374" departSpeed="15"/>
    <vehicle id="SN_252" type="car" route="SN" depart="376" departSpeed="15"/>
    <vehicle id="EWBottom_253" type="car" route="EWBottom" depart="377" departSpeed="15"/>
    <vehicle id="WETop_254" type="car" route="WETop" depart="380" departSpeed="15"/>
    <vehicle id="t6_255" type="car" route="t6" depart="381" departSpeed="15"/>
    <vehicle id="t4_256" type="car" route="t4" depart="386" departSpeed="15"/>
    <vehicle id="t6_257" type="car" route="t6" depart="386" departSpeed="15"/>
    <vehicle id="t6_258" type="car" route="t6" depart="387" departSpeed="15"/>
    <vehicle id="EWTop_259" type="car" route="EWTop" depart="391" departSpeed="15"/>
    <vehicle id="EWBottom_260" type="car" route="EWBottom" depart="393" departSpeed="15"/>
    <vehicle id="t4_261" type="car" route="t4" depart="393" departSpeed="15"/>
    <vehicle id="NS_262" type="car" route="NS" depart="398" departSpeed="15"/>
    <vehicle id="t6_263" type="car" route="t6" depart="399" departSpeed="15"/>
    <vehicle id="t6_264" type="car" route="t6" depart="402" departSpeed="15"/>
    <vehicle id="t5_265" type="car" route="t5" depart="404" departSpeed="15"/>
    <vehicle id="NS_266" type="car" route="NS" depart="405" departSpeed="15"/>
    <vehicle id="WETop_267" type="car" route="WETop" depart="406" departSpeed="15"/>
    <vehicle id="NS_268" type="car" route="NS" depart="407" departSpeed="15"/>
    <vehicle id="SN_269" type="car" route="SN" depart="410" departSpeed="15"/>
    <vehicle id="SN_270" type="car" route="SN" depart="414" departSpeed="15"/>
    <vehicle id="t2_271" type="car" route="t2" depart="414" departSpeed="15"/>
    <vehicle id="NS_272" type="car" route="NS" depart="416" departSpeed="15"/>
    <vehicle id="WETop_273" type="car" route="WETop" depart="417" departSpeed="15"/>
    <vehicle id="WETop_274" type="car" route="WETop" depart="419" departSpeed="15"/>
    <vehicle id="WEBottom_275" type="car" route="WEBottom" depart="419" departSpeed="15"/>
    <vehicle id="EWTop_276" type="car" route="EWTop" depart="423" departSpeed="15"/>
    <vehicle id="EWBottom_277" type="car" route="EWBottom" depart="423" departSpeed="15"/>
    <vehicle id="EWBottom_278" type="car" route="EWBottom" depart="424" departSpeed="15"/>
    <vehicle id="t3_279" type="car" route="t3" depart="424" departSpeed="15"/>
    <vehicle id="t4_280" type="car" route="t4" depart="424" departSpeed="15"/>
    <vehicle id="t5_281" type="car" route="t5" depart="424" departSpeed="15"/>
    <vehicle id="NS_282" type="car" route="NS" depart="425" departSpeed="15"/>
    <vehicle id="t4_283" type="car" route="t4" depart="425" departSpeed="15"/>
    <vehicle id="SN_284" type="car" route="SN" depart="427" departSpeed="15"/>
    <vehicle id="SN_285" type="car" route="SN" depart="428" departSpeed="15"/>
    <vehicle id="t3_286" type="car" route="t3" depart="434" departSpeed="15"/>
    <vehicle id="WEBottom_287" type="car" route="WEBottom" depart="441" departSpeed="15"/>
    <vehicle id="EWTop_288" type="car" route="EWTop" depart="442" departSpeed="15"/>
    <vehicle id="t4_289" type="car" route="t4" depart="442" departSpeed="15"/>
    <vehicle id="t4_290" type="car" route="t4" depart="443" departSpeed="15"/>
    <vehicle id="t3_291" type="car" route="t3" depart="447" departSpeed="15"/>
    <vehicle id="t2_292" type="car" route="t2" depart="448" departSpeed="15"/>
    <vehicle id="t2_293" type="car" route="t2" depart="449" departSpeed="15"/>
    <vehicle id="EWBottom_294" type="car" route="EWBottom" depart="450" departSpeed="15"/>
    <vehicle id="WETop_295" type="car" route="WETop" depart="451" departSpeed="15"/>
    <vehicle id="EWBottom_296" type="car" route="EWBottom" depart="451" departSpeed="15"/>
    <vehicle id="t5_297" type="car" route="t5" depart="453" departSpeed="15"/>
    <vehicle id="t3_298" type="car" route="t3" depart="455" departSpeed="15"/>
    <vehicle id="WEBottom_299" type="car" route="WEBottom" depart="458" departSpeed="15"/>
    <vehicle id="t5_300" type="car" route="t5" depart="458" departSpeed="15"/>
    <vehicle id="NS_301" type="car" route="NS" depart="459" departSpeed="15"/>
    <vehicle id="t2_302" type="car" route="t2" depart="460" departSpeed="15"/>
    <vehicle id="NS_303" type="car" route="NS" depart="461" departSpeed="15"/>
    <vehicle id="WETop_304" type="car" route="WETop" depart="462" departSpeed="15"/>
    <vehicle id="EWBottom_305" type="car" route="EWBottom" depart="462" departSpeed="15"/>
    <vehicle id="t3_306" type="car" route="t3" depart="462" departSpeed="15"/>
    <vehicle id="EWBottom_307" type="car" route="EWBottom" depart="463" departSpeed="15"/>
    <vehicle id="WEBottom_308" type="car" route="WEBottom" depart="465" departSpeed="15"/>
    <vehicle id="SN_309" type="car" route="SN" depart="465" departSpeed="15"/>
    <vehicle id="t6_310" type="car" route="t6" depart="465" departSpeed="15"/>
    <vehicle id="EWBottom_311" type="car" route="EWBottom" depart="466" departSpeed="15"/>
    <vehicle id="EWBottom_312" type="car" route="EWBottom" depart="467" departSpeed="15"/>
    <vehicle id="t2_313" type="car" route="t2" depart="469" departSpeed="15"/>
    <vehicle id="t4_314" type="car" route="t4" depart="476" departSpeed="15"/>
    <vehicle id="t5_315" type="car" route="t5" depart="476" departSpeed="15"/>
    <vehicle id="t6_316" type="car" route="t6" depart="476" departSpeed="15"/>
    <vehicle id="t5_317" type="car" route="t5" depart="477" departSpeed="15"/>
    <vehicle id="t6_318" type="car" route="t6" depart="480" departSpeed="15"/>
    <vehicle id="NS_319" type="car" route="NS" depart="483" departSpeed="15"/>
    <vehicle id="t5_320" type="car" route="t5" depart="483" departSpeed="15"/>
    <vehicle id="t3_321" type="car" route="t3" depart="485" departSpeed="15"/>
    <vehicle id="t4_322" type="car" route="t4" depart="489" departSpeed="15"/>
    <vehicle id="NS_323" type="car" route="NS" depart="490" departSpeed="15"/>
    <vehicle id="t4_324" type="car" route="t4" depart="492" departSpeed="15"/>
    <vehicle id="EWTop_325" type="car" route="EWTop" depart="493" departSpeed="15"/>
    <vehicle id="NS_326" type="car" route="NS" depart="493" departSpeed="15"/>
    <vehicle id="WETop_327" type="car" route="WETop" depart="498" departSpeed="15"/>
    <vehicle id="t2_328" type="car" route="t2" depart="498" departSpeed="15"/>
    <vehicle id="t2_329" type="car" route="t2" depart="499" departSpeed="15"/>
    <vehicle id="t4_330" type="car" route="t4" depart="499" departSpeed="15"/>
    <vehicle id="WETop_331" type="car" route="WETop" depart="502" departSpeed="15"/>
    <vehicle id="EWBottom_332" type="car" route="EWBottom" depart="502" departSpeed="15"/>
    <vehicle id="t6_333" type="car" route="t6" depart="506" departSpeed="15"/>
    <vehicle id="t3_334" type="car" route="t3" depart="510" departSpeed="15"/>
    <vehicle id="NS_335" type="car" route="NS" depart="520" departSpeed="15"/>
    <vehicle id="t5_336" type="car" route="t5" depart="520" departSpeed="15"/>
    <vehicle id="WEBottom_337" type="car" route="WEBottom" depart="521" departSpeed="15"/>
    <vehicle id="t6_338" type="car" route="t6" depart="522" departSpeed="15"/>
    <vehicle id="SN_339" type="car" route="SN" depart="523" departSpeed="15"/>
    <vehicle id="t3_340" type="car" route="t3" depart="527" departSpeed="15"/>
    <vehicle id="WEBottom_341" type="car" route="WEBottom" depart="528" departSpeed="15"/>
    <vehicle id="WEBottom_342" type="car" route="WEBottom" depart="529" departSpeed="15"/>
    <vehicle id="EWTop_343" type="car" route="EWTop" depart="531" departSpeed="15"/>
    <vehicle id="EWBottom_344" type="car" route="EWBottom" depart="535" departSpeed="15"/>
    <vehicle id="SN_345" type="car" route="SN" depart="536" departSpeed="15"/>
    <vehicle id="SN_346" type="car" route="SN" depart="542" departSpeed="15"/>
    <vehicle id="t6_347" type="car" route="t6" depart="543" departSpeed="15"/>
    <vehicle id="EWBottom_348" type="car" route="EWBottom" depart="546" departSpeed="15"/>
    <vehicle id="t4_349" type="car" route="t4" depart="547" departSpeed="15"/>
    <vehicle id="t2_350" type="car" route="t2" depart="554" departSpeed="15"/>
    <vehicle id="EWTop_351" type="car" route="EWTop" depart="555" departSpeed="15"/>
    <vehicle id="t2_352" type="car" route="t2" depart="558" departSpeed="15"/>
    <vehicle id="WETop_353" type="car" route="WETop" depart="559" departSpeed="15"/>
    <vehicle id="t2_354" type="car" route="t2" depart="559" departSpeed="15"/>