<routes>
                               <vType id="car" accel="1.0" decel="4.5" sigma="0.7" length="5" minGap="3" maxSpeed="15" guiShape="passenger"/>

                               <route id="WETop" edges="5i 1i 2o" />
                               <route id="EWTop" edges="2i 1o 5o" />
                               <route id="NS" edges="4i 3o 8i" />
                               <route id="SN" edges="8o 3i 4o" />
                               <route id="WEBottom" edges="9o 7o 11o" />
                               <route id="EWBottom" edges="11i 7i 9i" />

                               <route id="t2" edges="8o 7i 10i" />
                               <route id="t3" edges="4i 1o 6i" />
                               <route id="t4" edges="10o 7o 11o" />
                               <route id="t5" edges="9o 7o 8i" />
                               <route id="t6" edges="4i 3o 11o" />
                               
    <vehicle id="t2_0" type="car" route="t2" depart="0" departSpeed="5"/>
    <vehicle id="t6_1" type="car" route="t6" depart="1" departSpeed="5"/>
    <vehicle id="t4_2" type="car" route="t4" depart="2" departSpeed="5"/>
    <vehicle id="WEBottom_3" type="car" route="WEBottom" depart="3" departSpeed="5"/>
    <vehicle id="EWTop_4" type="car" route="EWTop" depart="4" departSpeed="5"/>
    <vehicle id="t5_5" type="car" route="t5" depart="4" departSpeed="5"/>
    <vehicle id="t5_6" type="car" route="t5" depart="6" departSpeed="5"/>
    <vehicle id="t6_7" type="car" route="t6" depart="6" departSpeed="5"/>
    <vehicle id="t4_8" type="car" route="t4" depart="7" departSpeed="5"/>
    <vehicle id="t5_9" type="car" route="t5" depart="7" departSpeed="5"/>
    <vehicle id="EWTop_10" type="car" route="EWTop" depart="13" departSpeed="5"/>
    <vehicle id="t6_11" type="car" route="t6" depart="13" departSpeed="5"/>
    <vehicle id="t4_12" type="car" route="t4" depart="14" departSpeed="5"/>
    <vehicle id="t3_13" type="car" route="t3" depart="16" departSpeed="5"/>
    <vehicle id="t5_14" type="car" route="t5" depart="16" departSpeed="5"/>
    <vehicle id="t3_15" type="car" route="t3" depart="17" departSpeed="5"/>
    <vehicle id="t4_16" type="car" route="t4" depart="17" departSpeed="5"/>
    <vehicle id="SN_17" type="car" route="SN" depart="19" departSpeed="5"/>
    <vehicle id="t2_18" type="car" route="t2" depart="19" departSpeed="5"/>
    <vehicle id="t4_19" type="car" route="t4" depart="19" departSpeed="5"/>
    <vehicle id="t6_20" type="car" route="t6" depart="19" departSpeed="5"/>
    <vehicle id="WEBottom_21" type="car" route="WEBottom" depart="20" departSpeed="5"/>
    <vehicle id="t4_22" type="car" route="t4" depart="20" departSpeed="5"/>
    <vehicle id="SN_23" type="car" route="SN" depart="21" departSpeed="5"/>
    <vehicle id="WEBottom_24" type="car" route="WEBottom" depart="22" departSpeed="5"/>
    <vehicle id="t3_25" type="car" route="t3" depart="22" departSpeed="5"/>
    <vehicle id="WETop_26" type="car" route="WETop" depart="23" departSpeed="5"/>
    <vehicle id="SN_27" type="car" route="SN" depart="24" departSpeed="5"/>
    <vehicle id="EWBottom_28" type="car" route="EWBottom" depart="31" departSpeed="5"/>
    <vehicle id="WEBottom_29" type="car" route="WEBottom" depart="32" departSpeed="5"/>
    <vehicle id="EWBottom_30" type="car" route="EWBottom" depart="32" departSpeed="5"/>
    <vehicle id="NS_31" type="car" route="NS" depart="32" departSpeed="5"/>
    <vehicle id="t3_32" type="car" route="t3" depart="32" departSpeed="5"/>
    <vehicle id="EWBottom_33" type="car" route="EWBottom" depart="33" departSpeed="5"/>
    <vehicle id="t3_34" type="car" route="t3" depart="33" departSpeed="5"/>
    <vehicle id="t3_35" type="car" route="t3" depart="34" departSpeed="5"/>
    <vehicle id="t2_36" type="car" route="t2" depart="36" departSpeed="5"/>
    <vehicle id="NS_37" type="car" route="NS" depart="38" departSpeed="5"/>
    <vehicle id="t2_38" type="car" route="t2" depart="38" departSpeed="5"/>
    <vehicle id="t2_39" type="car" route="t2" depart="39" departSpeed="5"/>
    <vehicle id="t4_40" type="car" route="t4" depart="39" departSpeed="5"/>
    <vehicle id="WEBottom_41" type="car" route="WEBottom" depart="40" departSpeed="5"/>
    <vehicle id="EWBottom_42" type="car" route="EWBottom" depart="40" departSpeed="5"/>
    <vehicle id="t4_43" type="car" route="t4" depart="40" departSpeed="5"/>
    <vehicle id="t6_44" type="car" route="t6" depart="42" departSpeed="5"/>
    <vehicle id="t4_45" type="car" route="t4" depart="43" departSpeed="5"/>
    <vehicle id="t3_46" type="car" route="t3" depart="44" departSpeed="5"/>
    <vehicle id="WEBottom_47" type="car" route="WEBottom" depart="46" departSpeed="5"/>
    <vehicle id="WETop_48" type="car" route="WETop" depart="48" departSpeed="5"/>
    <vehicle id="EWBottom_49" type="car" route="EWBottom" depart="48" departSpeed="5"/>
    <vehicle id="t3_50" type="car" route="t3" depart="49" departSpeed="5"/>
    <vehicle id="t3_51" type="car" route="t3" depart="50" departSpeed="5"/>
    <vehicle id="WETop_52" type="car" route="WETop" depart="51" departSpeed="5"/>
    <vehicle id="t6_53" type="car" route="t6" depart="51" departSpeed="5"/>
    <vehicle id="t6_54" type="car" route="t6" depart="52" departSpeed="5"/>
    <vehicle id="t4_55" type="car" route="t4" depart="53" departSpeed="5"/>
    <vehicle id="EWTop_56" type="car" route="EWTop" depart="54" departSpeed="5"/>
    <vehicle id="WEBottom_57" type="car" route="WEBottom" depart="54" departSpeed="5"/>
    <vehicle id="SN_58" type="car" route="SN" depart="56" departSpeed="5"/>
    <vehicle id="SN_59" type="car" route="SN" depart="58" departSpeed="5"/>
    <vehicle id="t2_60" type="car" route="t2" depart="59" departSpeed="5"/>
    <vehicle id="t3_61" type="car" route="t3" depart="61" departSpeed="5"/>
    <vehicle id="EWTop_62" type="car" route="EWTop" depart="62" departSpeed="5"/>
    <vehicle id="NS_63" type="car" route="NS" depart="62" departSpeed="5"/>
    <vehicle id="SN_64" type="car" route="SN" depart="63" departSpeed="5"/>
    <vehicle id="t6_65" type="car" route="t6" depart="64" departSpeed="5"/>
    <vehicle id="EWTop_66" type="car" route="EWTop" depart="67" departSpeed="5"/>
    <vehicle id="WETop_67" type="car" route="WETop" depart="68" departSpeed="5"/>
    <vehicle id="SN_68" type="car" route="SN" depart="68" departSpeed="5"/>
    <vehicle id="t6_69" type="car" route="t6" depart="68" departSpeed="5"/>
    <vehicle id="EWBottom_70" type="car" route="EWBottom" depart="69" departSpeed="5"/>
    <vehicle id="NS_71" type="car" route="NS" depart="72" departSpeed="5"/>
    <vehicle id="WETop_72" type="car" route="WETop" depart="73" departSpeed="5"/>
    <vehicle id="SN_73" type="car" route="SN" depart="74" departSpeed="5"/>
    <vehicle id="t3_74" type="car" route="t3" depart="74" departSpeed="5"/>
    <vehicle id="WEBottom_75" type="car" route="WEBottom" depart="77" departSpeed="5"/>
    <vehicle id="SN_76" type="car" route="SN" depart="78" departSpeed="5"/>
    <vehicle id="EWBottom_77" type="car" route="EWBottom" depart="80" departSpeed="5"/>
    <vehicle id="EWTop_78" type="car" route="EWTop" depart="81" departSpeed="5"/>
    <vehicle id="t5_79" type="car" route="t5" depart="81" departSpeed="5"/>
    <vehicle id="t3_80" type="car" route="t3" depart="82" departSpeed="5"/>
    <vehicle id="NS_81" type="car" route="NS" depart="83" departSpeed="5"/>
    <vehicle id="NS_82" type="car" route="NS" depart="85" departSpeed="5"/>
    <vehicle id="SN_83" type="car" route="SN" depart="85" departSpeed="5"/>
    <vehicle id="t4_84" type="car" route="t4" depart="86" departSpeed="5"/>
    <vehicle id="t5_85" type="car" route="t5" depart="86" departSpeed="5"/>
    <vehicle id="t6_86" type="car" route="t6" depart="86" departSpeed="5"/>
    <vehicle id="t5_87" type="car" route="t5" depart="87" departSpeed="5"/>
    <vehicle id="NS_88" type="car" route="NS" depart="88" departSpeed="5"/>
    <vehicle id="SN_89" type="car" route="SN" depart="89" departSpeed="5"/>
    <vehicle id="t4_90" type="car" route="t4" depart="90" departSpeed="5"/>
    <vehicle id="SN_91" type="car" route="SN" depart="91" departSpeed="5"/>
    <vehicle id="t5_92" type="car" route="t5" depart="91" departSpeed="5"/>
    <vehicle id="t6_93" type="car" route="t6" depart="91" departSpeed="5"/>
    <vehicle id="t5_94" type="car" route="t5" depart="92" departSpeed="5"/>
    <vehicle id="t6_95" type="car" route="t6" depart="92" departSpeed="5"/>
    <vehicle id="t2_96" type="car" route="t2" depart="95" departSpeed="5"/>
    <vehicle id="SN_97" type="car" route="SN" depart="97" departSpeed="5"/>
    <vehicle id="EWTop_98" type="car" route="EWTop" depart="99" departSpeed="5"/>
    <vehicle id="SN_99" type="car" route="SN" depart="100" departSpeed="5"/>
    <vehicle id="t5_100" type="car" route="t5" depart="100" departSpeed="5"/>
    <vehicle id="t2_101" type="car" route="t2" depart="103" departSpeed="5"/>
    <vehicle id="t6_102" type="car" route="t6" depart="105" departSpeed="5"/>
    <vehicle id="EWTop_103" type="car" route="EWTop" depart="106" departSpeed="5"/>
    <vehicle id="t4_104" type="car" route="t4" depart="107" departSpeed="5"/>
    <vehicle id="t5_105" type="car" route="t5" depart="107" departSpeed="5"/>
    <vehicle id="WEBottom_106" type="car" route="WEBottom" depart="108" departSpeed="5"/>
    <vehicle id="EWBottom_107" type="car" route="EWBottom" depart="108" departSpeed="5"/>
    <vehicle id="NS_108" type="car" route="NS" depart="108" departSpeed="5"/>
    <vehicle id="EWBottom_109" type="car" route="EWBottom" depart="111" departSpeed="5"/>
    <vehicle id="SN_110" type="car" route="SN" depart="112" departSpeed="5"/>
    <vehicle id="t5_111" type="car" route="t5" depart="112" departSpeed="5"/>
    <vehicle id="SN_112" type="car" route="SN" depart="113" departSpeed="5"/>
    <vehicle id="t3_113" type="car" route="t3" depart="113" departSpeed="5"/>
    <vehicle id="t6_114" type="car" route="t6" depart="114" departSpeed="5"/>
    <vehicle id="EWTop_115" type="car" route="EWTop" depart="119" departSpeed="5"/>
    <vehicle id="WEBottom_116" type="car" route="WEBottom" depart="120" departSpeed="5"/>
    <vehicle id="t3_117" type="car" route="t3" depart="121" departSpeed="5"/>
    <vehicle id="SN_118" type="car" route="SN" depart="122" departSpeed="5"/>
    <vehicle id="t2_119" type="car" route="t2" depart="122" departSpeed="5"/>
    <vehicle id="EWBottom_120" type="car" route="EWBottom" depart="123" departSpeed="5"/>
    <vehicle id="t3_121" type="car" route="t3" depart="123" departSpeed="5"/>
    <vehicle id="t4_122" type="car" route="t4" depart="123" departSpeed="5"/>
    <vehicle id="WEBottom_123" type="car" route="WEBottom" depart="124" departSpeed="5"/>
    <vehicle id="t5_124" type="car" route="t5" depart="124" departSpeed="5"/>
    <vehicle id="EWTop_125" type="car" route="EWTop" depart="128" departSpeed="5"/>
    <vehicle id="NS_126" type="car" route="NS" depart="128" departSpeed="5"/>
    <vehicle id="SN_127" type="car" route="SN" depart="128" departSpeed="5"/>
    <vehicle id="t6_128" type="car" route="t6" depart="130" departSpeed="5"/>
    <vehicle id="EWBottom_129" type="car" route="EWBottom" depart="131" departSpeed="5"/>
    <vehicle id="t2_130" type="car" route="t2" depart="132" departSpeed="5"/>
    <vehicle id="EWBottom_131" type="car" route="EWBottom" depart="134" departSpeed="5"/>
    <vehicle id="t5_132" type="car" route="t5" depart="134" departSpeed="5"/>
    <vehicle id="t2_133" type="car" route="t2" depart="135" departSpeed="5"/>
    <vehicle id="t6_134" type="car" route="t6" depart="135" departSpeed="5"/>
    <vehicle id="t3_135" type="car" route="t3" depart="136" departSpeed="5"/>
    <vehicle id="WEBottom_136" type="car" route="WEBottom" depart="138" departSpeed="5"/>
    <vehicle id="t6_137" type="car" route="t6" depart="139" departSpeed="5"/>
    <vehicle id="WEBottom_138" type="car" route="WEBottom" depart="140" departSpeed="5"/>
    <vehicle id="WETop_139" type="car" route="WETop" depart="141" departSpeed="5"/>
    <vehicle id="NS_140" type="car" route="NS" depart="141" departSpeed="5"/>
    <vehicle id="t4_141" type="car" route="t4" depart="142" departSpeed="5"/>
    <vehicle id="WETop_142" type="car" route="WETop" depart="143" departSpeed="5"/>
    <vehicle id="SN_143" type="car" route="SN" depart="146" departSpeed="5"/>
    <vehicle id="t4_144" type="car" route="t4" depart="146" departSpeed="5"/>
    <vehicle id="t5_145" type="car" route="t5" depart="146" departSpeed="5"/>
    <vehicle id="t2_146" type="car" route="t2" depart="148" departSpeed="5"/>
    <vehicle id="t4_147" type="car" route="t4" depart="148" departSpeed="5"/>
    <vehicle id="t3_148" type="car" route="t3" depart="150" departSpeed="5"/>
    <vehicle id="t4_149" type="car" route="t4" depart="150" departSpeed="5"/>
    <vehicle id="t4_150" type="car" route="t4" depart="151" departSpeed="5"/>
    <vehicle id="t6_151" type="car" route="t6" depart="152" departSpeed="5"/>
    <vehicle id="EWBottom_152" type="car" route="EWBottom" depart="153" departSpeed="5"/>
    <vehicle id="WEBottom_153" type="car" route="WEBottom" depart="154" departSpeed="5"/>
    <vehicle id="WEBottom_154" type="car" route="WEBottom" depart="155" departSpeed="5"/>
    <vehicle id="NS_155" type="car" route="NS" depart="157" departSpeed="5"/>
    <vehicle id="t2_156" type="car" route="t2" depart="157" departSpeed="5"/>
    <vehicle id="NS_157" type="car" route="NS" depart="159" departSpeed="5"/>
    <vehicle id="t2_158" type="car" route="t2" depart="160" departSpeed="5"/>
    <vehicle id="t4_159" type="car" route="t4" depart="161" departSpeed="5"/>
    <vehicle id="t3_160" type="car" route="t3" depart="162" departSpeed="5"/>
    <vehicle id="NS_161" type="car" route="NS" depart="164" departSpeed="5"/>
    <vehicle id="WETop_162" type="car" route="WETop" depart="165" departSpeed="5"/>
    <vehicle id="t2_163" type="car" route="t2" depart="165" departSpeed="5"/>
    <vehicle id="t4_164" type="car" route="t4" depart="165" departSpeed="5"/>
    <vehicle id="t5_165" type="car" route="t5" depart="165" departSpeed="5"/>
    <vehicle id="EWTop_166" type="car" route="EWTop" depart="169" departSpeed="5"/>
    <vehicle id="NS_167" type="car" route="NS" depart="169" departSpeed="5"/>
    <vehicle id="t5_168" type="car" route="t5" depart="169" departSpeed="5"/>
    <vehicle id="WETop_169" type="car" route="WETop" depart="171" departSpeed="5"/>
    <vehicle id="t4_170" type="car" route="t4" depart="171" departSpeed="5"/>
    <vehicle id="EWBottom_171" type="car" route="EWBottom" depart="173" departSpeed="5"/>
    <vehicle id="EWTop_172" type="car" route="EWTop" depart="174" departSpeed="5"/>
    <vehicle id="SN_173" type="car" route="SN" depart="174" departSpeed="5"/>
    <vehicle id="t4_174" type="car" route="t4" depart="176" departSpeed="5"/>
    <vehicle id="t5_175" type="car" route="t5" depart="176" departSpeed="5"/>
    <vehicle id="t6_176" type="car" route="t6" depart="176" departSpeed="5"/>
    <vehicle id="WETop_177" type="car" route="WETop" depart="179" departSpeed="5"/>
    <vehicle id="t2_178" type="car" route="t2" depart="179" departSpeed="5"/>
    <vehicle id="t6_179" type="car" route="t6" depart="179" departSpeed="5"/>
    <vehicle id="t5_180" type="car" route="t5" depart="180" departSpeed="5"/>
    <vehicle id="WEBottom_181" type="car" route="WEBottom" depart="183" departSpeed="5"/>
    <vehicle id="NS_182" type="car" route="NS" depart="183" departSpeed="5"/>
    <vehicle id="t2_183" type="car" route="t2" depart="185" departSpeed="5"/>
    <vehicle id="t3_184" type="car" route="t3" depart="186" departSpeed="5"/>
    <vehicle id="t3_185" type="car" route="t3" depart="187" departSpeed="5"/>
    <vehicle id="NS_186" type="car" route="NS" depart="192" departSpeed="5"/>
    <vehicle id="t2_187" type="car" route="t2" depart="192" departSpeed="5"/>
    <vehicle id="EWBottom_188" type="car" route="EWBottom" depart="193" departSpeed="5"/>
    <vehicle id="NS_189" type="car" route="NS" depart="194" departSpeed="5"/>
    <vehicle id="t6_190" type="car" route="t6" depart="194" departSpeed="5"/>
    <vehicle id="WEBottom_191" type="car" route="WEBottom" depart="197" departSpeed="5"/>
    <vehicle id="t6_192" type="car" route="t6" depart="197" departSpeed="5"/>
    <vehicle id="t2_193" type="car" route="t2" depart="198" departSpeed="5"/>
    <vehicle id="EWBottom_194" type="car" route="EWBottom" depart="199" departSpeed="5"/>
    <vehicle id="SN_195" type="car" route="SN" depart="199" departSpeed="5"/>
    <vehicle id="t6_196" type="car" route="t6" depart="199" departSpeed="5"/>
    <vehicle id="t4_197" type="car" route="t4" depart="200" departSpeed="5"/>
    <vehicle id="t2_198" type="car" route="t2" depart="201" departSpeed="5"/>
    <vehicle id="t3_199" type="car" route="t3" depart="201" departSpeed="5"/>
    <vehicle id="EWTop_200" type="car" route="EWTop" depart="202" departSpeed="5"/>
    <vehicle id="NS_201" type="car" route="NS" depart="205" departSpeed="5"/>
    <vehicle id="t3_202" type="car" route="t3" depart="205" departSpeed="5"/>
    <vehicle id="t5_203" type="car" route="t5" depart="206" departSpeed="5"/>
    <vehicle id="t3_204" type="car" route="t3" depart="207" departSpeed="5"/>
    <vehicle id="t2_205" type="car" route="t2" depart="208" departSpeed="5"/>
    <vehicle id="t6_206" type="car" route="t6" depart="209" departSpeed="5"/>
    <vehicle id="t6_207" type="car" route="t6" depart="210" departSpeed="5"/>
    <vehicle id="t4_208" type="car" route="t4" depart="211" departSpeed="5"/>
    <vehicle id="SN_209" type="car" route="SN" depart="212" departSpeed="5"/>
    <vehicle id="t3_210" type="car" route="t3" depart="212" departSpeed="5"/>
    <vehicle id="EWTop_211" type="car" route="EWTop" depart="213" departSpeed="5"/>
    <vehicle id="EWTop_212" type="car" route="EWTop" depart="214" departSpeed="5"/>
    <vehicle id="EWTop_213" type="car" route="EWTop" depart="216" departSpeed="5"/>
    <vehicle id="EWBottom_214" type="car" route="EWBottom" depart="217" departSpeed="5"/>
    <vehicle id="NS_215" type="car" route="NS" depart="217" departSpeed="5"/>
    <vehicle id="WEBottom_216" type="car" route="WEBottom" depart="218" departSpeed="5"/>
    <vehicle id="EWTop_217" type="car" route="EWTop" depart="219" departSpeed="5"/>
    <vehicle id="t4_218" type="car" route="t4" depart="219" departSpeed="5"/>
    <vehicle id="EWBottom_219" type="car" route="EWBottom" depart="220" departSpeed="5"/>
    <vehicle id="t2_220" type="car" route="t2" depart="220" departSpeed="5"/>
    <vehicle id="t4_221" type="car" route="t4" depart="220" departSpeed="5"/>
    <vehicle id="t2_222" type="car" route="t2" depart="221" departSpeed="5"/>
    <vehicle id="t4_223" type="car" route="t4" depart="221" departSpeed="5"/>
    <vehicle id="t3_224" type="car" route="t3" depart="224" departSpeed="5"/>
    <vehicle id="t4_225" type="car" route="t4" depart="224" departSpeed="5"/>
    <vehicle id="EWBottom_226" type="car" route="EWBottom" depart="225" departSpeed="5"/>
    <vehicle id="t3_227" type="car" route="t3" depart="225" departSpeed="5"/>
    <vehicle id="WETop_228" type="car" route="WETop" depart="226" departSpeed="5"/>
    <vehicle id="EWBottom_229" type="car" route="EWBottom" depart="227" departSpeed="5"/>
    <vehicle id="NS_230" type="car" route="NS" depart="227" departSpeed="5"/>
    <vehicle id="SN_231" type="car" route="SN" depart="229" departSpeed="5"/>
    <vehicle id="WEBottom_232" type="car" route="WEBottom" depart="230" departSpeed="5"/>
    <vehicle id="t2_233" type="car" route="t2" depart="230" departSpeed="5"/>
    <vehicle id="WETop_234" type="car" route="WETop" depart="232" departSpeed="5"/>
    <vehicle id="t6_235" type="car" route="t6" depart="232" departSpeed="5"/>
    <vehicle id="t5_236" type="car" route="t5" depart="233" departSpeed="5"/>
    <vehicle id="EWBottom_237" type="car" route="EWBottom" depart="234" departSpeed="5"/>
    <vehicle id="WETop_238" type="car" route="WETop" depart="236" departSpeed="5"/>
    <vehicle id="EWTop_239" type="car" route="EWTop" depart="238" departSpeed="5"/>
    <vehicle id="t3_240" type="car" route="t3" depart="239" departSpeed="5"/>
    <vehicle id="t5_241" type="car" route="t5" depart="240" departSpeed="5"/>
    <vehicle id="EWTop_242" type="car" route="EWTop" depart="241" departSpeed="5"/>
    <vehicle id="t2_243" type="car" route="t2" depart="243" departSpeed="5"/>
    <vehicle id="t6_244" type="car" route="t6" depart="243" departSpeed="5"/>
    <vehicle id="t2_245" type="car" route="t2" depart="244" departSpeed="5"/>
    <vehicle id="SN_246" type="car" route="SN" depart="245" departSpeed="5"/>
    <vehicle id="NS_247" type="car" route="NS" depart="248" departSpeed="5"/>
    <vehicle id="EWTop_248" type="car" route="EWTop" depart="250" departSpeed="5"/>
    <vehicle id="EWBottom_249" type="car" route="EWBottom" depart="250" departSpeed="5"/>
    <vehicle id="NS_250" type="car" route="NS" depart="251" departSpeed="5"/>
    <vehicle id="WETop_251" type="car" route="WETop" depart="252" departSpeed="5"/>
    <vehicle id="t3_252" type="car" route="t3" depart="252" departSpeed="5"/>
    <vehicle id="t5_253" type="car" route="t5" depart="252" departSpeed="5"/>
    <vehicle id="NS_254" type="car" route="NS" depart="253" departSpeed="5"/>
    <vehicle id="t3_255" type="car" route="t3" depart="254" departSpeed="5"/>
    <vehicle id="t6_256" type="car" route="t6" depart="254" departSpeed="5"/>
    <vehicle id="WETop_257" type="car" route="WETop" depart="256" departSpeed="5"/>
    <vehicle id="EWTop_258" type="car" route="EWTop" depart="260" departSpeed="5"/>
    <vehicle id="NS_259" type="car" route="NS" depart="260" departSpeed="5"/>
    <vehicle id="t3_260" type="car" route="t3" depart="260" departSpeed="5"/>
    <vehicle id="t5_261" type="car" route="t5" depart="260" departSpeed="5"/>
    <vehicle id="WEBottom_262" type="car" route="WEBottom" depart="261" departSpeed="5"/>
    <vehicle id="EWBottom_263" type="car" route="EWBottom" depart="261" departSpeed="5"/>
    <vehicle id="t5_264" type="car" route="t5" depart="261" departSpeed="5"/>
    <vehicle id="t2_265" type="car" route="t2" depart="263" departSpeed="5"/>
    <vehicle id="t2_266" type="car" route="t2" depart="264" departSpeed="5"/>
    <vehicle id="EWTop_267" type="car" route="EWTop" depart="265" departSpeed="5"/>
    <vehicle id="t2_268" type="car" route="t2" depart="265" departSpeed="5"/>
    <vehicle id="t3_269" type="car" route="t3" depart="266" departSpeed="5"/>
    <vehicle id="WEBottom_270" type="car" route="WEBottom" depart="267" departSpeed="5"/>
    <vehicle id="t3_271" type="car" route="t3" depart="267" departSpeed="5"/>
    <vehicle id="SN_272" type="car" route="SN" depart="268" departSpeed="5"/>
    <vehicle id="t5_273" type="car" route="t5" depart="268" departSpeed="5"/>
    <vehicle id="t5_274" type="car" route="t5" depart="269" departSpeed="5"/>
    <vehicle id="t3_275" type="car" route="t3" depart="270" departSpeed="5"/>
    <vehicle id="t6_276" type="car" route="t6" depart="270" departSpeed="5"/>
    <vehicle id="EWTop_277" type="car" route="EWTop" depart="271" departSpeed="5"/>
    <vehicle id="t6_278" type="car" route="t6" depart="271" departSpeed="5"/>
    <vehicle id="t4_279" type="car" route="t4" depart="272" departSpeed="5"/>
    <vehicle id="t5_280" type="car" route="t5" depart="272" departSpeed="5"/>
    <vehicle id="t4_281" type="car" route="t4" depart="273" departSpeed="5"/>
    <vehicle id="NS_282" type="car" route="NS" depart="274" departSpeed="5"/>
    <vehicle id="EWTop_283" type="car" route="EWTop" depart="276" departSpeed="5"/>
    <vehicle id="SN_284" type="car" route="SN" depart="277" departSpeed="5"/>
    <vehicle id="t6_285" type="car" route="t6" depart="277" departSpeed="5"/>
    <vehicle id="t2_286" type="car" route="t2" depart="278" departSpeed="5"/>
    <vehicle id="EWBottom_287" type="car" route="EWBottom" depart="279" departSpeed="5"/>
    <vehicle id="SN_288" type="car" route="SN" depart="279" departSpeed="5"/>
    <vehicle id="t6_289" type="car" route="t6" depart="281" departSpeed="5"/>
    <vehicle id="NS_290" type="car" route="NS" depart="283" departSpeed="5"/>
    <vehicle id="WETop_291" type="car" route="WETop" depart="284" departSpeed="5"/>
    <vehicle id="t5_292" type="car" route="t5" depart="285" departSpeed="5"/>
    <vehicle id="t3_293" type="car" route="t3" depart="286" departSpeed="5"/>
    <vehicle id="t4_294" type="car" route="t4" depart="286" departSpeed="5"/>
    <vehicle id="SN_295" type="car" route="SN" depart="290" departSpeed="5"/>
    <vehicle id="EWTop_296" type="car" route="EWTop" depart="291" departSpeed="5"/>
    <vehicle id="NS_297" type="car" route="NS" depart="291" departSpeed="5"/>
    <vehicle id="SN_298" type="car" route="SN" depart="292" departSpeed="5"/>
    <vehicle id="t2_299" type="car" route="t2" depart="292" departSpeed="5"/>
    <vehicle id="t6_300" type="car" route="t6" depart="293" departSpeed="5"/>
    <vehicle id="EWTop_301" type="car" route="EWTop" depart="296" departSpeed="5"/>
    <vehicle id="t3_302" type="car" route="t3" depart="296" departSpeed="5"/>
    <vehicle id="WEBottom_303" type="car" route="WEBottom" depart="297" departSpeed="5"/>
    <vehicle id="EWTop_304" type="car" route="EWTop" depart="298" departSpeed="5"/>
    <vehicle id="t4_305" type="car" route="t4" depart="298" departSpeed="5"/>
    <vehicle id="t6_306" type="car" route="t6" depart="299" departSpeed="5"/>
    <vehicle id="EWBottom_307" type="car" route="EWBottom" depart="301" departSpeed="5"/>
    <vehicle id="NS_308" type="car" route="NS" depart="301" departSpeed="5"/>
    <vehicle id="SN_309" type="car" route="SN" depart="301" departSpeed="5"/>
    <vehicle id="WETop_310" type="car" route="WETop" depart="302" departSpeed="5"/>
    <vehicle id="WEBottom_311" type="car" route="WEBottom" depart="302" departSpeed="5"/>
    <vehicle id="NS_312" type="car" route="NS" depart="302" departSpeed="5"/>
    <vehicle id="t5_313" type="car" route="t5" depart="302" departSpeed="5"/>
    <vehicle id="EWTop_314" type="car" route="EWTop" depart="303" departSpeed="5"/>
    <vehicle id="t6_315" type="car" route="t6" depart="304" departSpeed="5"/>
    <vehicle id="t3_316" type="car" route="t3" depart="306" departSpeed="5"/>
    <vehicle id="t5_317" type="car" route="t5" depart="308" departSpeed="5"/>
    <vehicle id="t3_318" type="car" route="t3" depart="310" departSpeed="5"/>
    <vehicle id="t2_319" type="car" route="t2" depart="311" departSpeed="5"/>
    <vehicle id="t5_320" type="car" route="t5" depart="311" departSpeed="5"/>
    <vehicle id="t4_321" type="car" route="t4" depart="313" departSpeed="5"/>
    <vehicle id="t6_322" type="car" route="t6" depart="313" departSpeed="5"/>
    <vehicle id="WETop_323" type="car" route="WETop" depart="315" departSpeed="5"/>
    <vehicle id="EWTop_324" type="car" route="EWTop" depart="315" departSpeed="5"/>
    <vehicle id="SN_325" type="car" route="SN" depart="315" departSpeed="5"/>
    <vehicle id="WEBottom_326" type="car" route="WEBottom" depart="316" departSpeed="5"/>
    <vehicle id="EWBottom_327" type="car" route="EWBottom" depart="316" departSpeed="5"/>
    <vehicle id="SN_328" type="car" route="SN" depart="317" departSpeed="5"/>
    <vehicle id="WETop_329" type="car" route="WETop" depart="318" departSpeed="5"/>
    <vehicle id="EWTop_330" type="car" route="EWTop" depart="319" departSpeed="5"/>
    <vehicle id="NS_331" type="car" route="NS" depart="320" departSpeed="5"/>
    <vehicle id="t2_332" type="car" route="t2" depart="320" departSpeed="5"/>
    <vehicle id="WETop_333" type="car" route="WETop" depart="321" departSpeed="5"/>
    <vehicle id="SN_334" type="car" route="SN" depart="323" departSpeed="5"/>
    <vehicle id="SN_335" type="car" route="SN" depart="325" departSpeed="5"/>
    <vehicle id="t2_336" type="car" route="t2" depart="326" departSpeed="5"/>
    <vehicle id="WETop_337" type="car" route="WETop" depart="327" departSpeed="5"/>
    <vehicle id="WEBottom_338" type="car" route="WEBottom" depart="327" departSpeed="5"/>
    <vehicle id="NS_339" type="car" route="NS" depart="328" departSpeed="5"/>
    <vehicle id="t3_340" type="car" route="t3" depart="329" departSpeed="5"/>
    <vehicle id="t5_341" type="car" route="t5" depart="330" departSpeed="5"/>
    <vehicle id="EWTop_342" type="car" route="EWTop" depart="332" departSpeed="5"/>
    <vehicle id="NS_343" type="car" route="NS" depart="332" departSpeed="5"/>
    <vehicle id="WETop_344" type="car" route="WETop" depart="333" departSpeed="5"/>
    <vehicle id="EWBottom_345" type="car" route="EWBottom" depart="334" departSpeed="5"/>
    <vehicle id="NS_346" type="car" route="NS" depart="334" departSpeed="5"/>
    <vehicle id="t2_347" type="car" route="t2" depart="334" departSpeed="5"/>
    <vehicle id="t5_348" type="car" route="t5" depart="335" departSpeed="5"/>
    <vehicle id="WETop_349" type="car" route="WETop" depart="336" departSpeed="5"/>
    <vehicle id="t6_350" type="car" route="t6" depart="336" departSpeed="5"/>
    <vehicle id="NS_351" type="car" route="NS" depart="338" departSpeed="5"/>
    <vehicle id="SN_352" type="car" route="SN" depart="338" departSpeed="5"/>
    <vehicle id="t3_353" type="car" route="t3" depart="339" departSpeed="5"/>
    <vehicle id="WEBottom_354" type="car" route="WEBottom" depart="340" departSpeed="5"/>
    <vehicle id="NS_355" type="car" route="NS" depart="341" departSpeed="5"/>
    <vehicle id="WETop_356" type="car" route="WETop" depart="342" departSpeed="5"/>
    <vehicle id="SN_357" type="car" route="SN" depart="342" departSpeed="5"/>
    <vehicle id="t3_358" type="car" route="t3" depart="342" departSpeed="5"/>
    <vehicle id="t6_359" type="car" route="t6" depart="342" departSpeed="5"/>
    <vehicle id="NS_360" type="car" route="NS" depart="343" departSpeed="5"/>
    <vehicle id="t2_361" type="car" route="t2" depart="344" departSpeed="5"/>