<?xml version="1.0" encoding="UTF-8"?>

<!-- generated on Sun Aug  5 04:31:08 2018 by SUMO netconvert Version 0.32.0
<?xml version="1.0" encoding="UTF-8"?>

<configuration xmlns:xsi="http://www.w3.org/2001/XMLSchema-instance" xsi:noNamespaceSchemaLocation="http://sumo.dlr.de/xsd/netconvertConfiguration.xsd">

    <input>
        <node-files value="cross.nod.xml"/>
        <edge-files value="cross.edg.xml"/>
    </input>

    <output>
        <output-file value="cross.net.xml"/>
    </output>

</configuration>
-->

<net version="0.27" xmlns:xsi="http://www.w3.org/2001/XMLSchema-instance" xsi:noNamespaceSchemaLocation="http://sumo.dlr.de/xsd/net_file.xsd">

    <location netOffset="384.00,384.00" convBoundary="0.00,0.00,512.00,512.00" origBoundary="-384.00,-384.00,128.00,128.00" projParameter="!"/>

    <edge id=":0_0" function="internal">
        <lane id=":0_0_0" index="0" speed="15.00" length="5.00" shape="379.05,392.05 378.86,390.69 378.28,389.73 377.31,389.14 375.95,388.95"/>
    </edge>
    <edge id=":0_1" function="internal">
        <lane id=":0_1_0" index="0" speed="15.00" length="16.10" shape="379.05,392.05 379.05,375.95"/>
        <lane id=":0_1_1" index="1" speed="15.00" length="16.10" shape="382.35,392.05 382.35,375.95"/>
    </edge>
    <edge id=":0_3" function="internal">
        <lane id=":0_3_0" index="0" speed="15.00" length="6.41" shape="382.35,392.05 382.96,387.81 384.05,385.98"/>
    </edge>
    <edge id=":0_4" function="internal">
        <lane id=":0_4_0" index="0" speed="15.00" length="2.41" shape="382.35,392.05 383.17,390.81 384.00,390.40"/>
    </edge>
    <edge id=":0_20" function="internal">
        <lane id=":0_20_0" index="0" speed="15.00" length="9.23" shape="384.05,385.98 384.78,384.77 387.81,382.96 392.05,382.35"/>
    </edge>
    <edge id=":0_21" function="internal">
        <lane id=":0_21_0" index="0" speed="15.00" length="2.41" shape="384.00,390.40 384.82,390.81 385.65,392.05"/>
    </edge>
    <edge id=":0_5" function="internal">
        <lane id=":0_5_0" index="0" speed="15.00" length="5.00" shape="392.05,388.95 390.69,389.14 389.73,389.72 389.14,390.69 388.95,392.05"/>
    </edge>
    <edge id=":0_6" function="internal">
        <lane id=":0_6_0" index="0" speed="15.00" length="16.10" shape="392.05,388.95 375.95,388.95"/>
        <lane id=":0_6_1" index="1" speed="15.00" length="16.10" shape="392.05,385.65 375.95,385.65"/>
    </edge>
    <edge id=":0_8" function="internal">
        <lane id=":0_8_0" index="0" speed="15.00" length="6.41" shape="392.05,385.65 387.81,385.04 385.98,383.95"/>
    </edge>
    <edge id=":0_9" function="internal">
        <lane id=":0_9_0" index="0" speed="15.00" length="2.41" shape="392.05,385.65 390.81,384.83 390.40,384.00"/>
    </edge>
    <edge id=":0_22" function="internal">
        <lane id=":0_22_0" index="0" speed="15.00" length="9.23" shape="385.98,383.95 384.77,383.22 382.96,380.19 382.35,375.95"/>
    </edge>
    <edge id=":0_23" function="internal">
        <lane id=":0_23_0" index="0" speed="15.00" length="2.41" shape="390.40,384.00 390.81,383.18 392.05,382.35"/>
    </edge>
    <edge id=":0_10" function="internal">
        <lane id=":0_10_0" index="0" speed="15.00" length="5.00" shape="388.95,375.95 389.14,377.31 389.72,378.27 390.69,378.86 392.05,379.05"/>
    </edge>
    <edge id=":0_11" function="internal">
        <lane id=":0_11_0" index="0" speed="15.00" length="16.10" shape="388.95,375.95 388.95,392.05"/>
        <lane id=":0_11_1" index="1" speed="15.00" length="16.10" shape="385.65,375.95 385.65,392.05"/>
    </edge>
    <edge id=":0_13" function="internal">
        <lane id=":0_13_0" index="0" speed="15.00" length="6.41" shape="385.65,375.95 385.04,380.19 383.95,382.02"/>
    </edge>
    <edge id=":0_14" function="internal">
        <lane id=":0_14_0" index="0" speed="15.00" length="2.41" shape="385.65,375.95 384.83,377.19 384.00,377.60"/>
    </edge>
    <edge id=":0_24" function="internal">
        <lane id=":0_24_0" index="0" speed="15.00" length="9.23" shape="383.95,382.02 383.22,383.23 380.19,385.04 375.95,385.65"/>
    </edge>
    <edge id=":0_25" function="internal">
        <lane id=":0_25_0" index="0" speed="15.00" length="2.41" shape="384.00,377.60 383.18,377.19 382.35,375.95"/>
    </edge>
    <edge id=":0_15" function="internal">
        <lane id=":0_15_0" index="0" speed="15.00" length="5.00" shape="375.95,379.05 377.31,378.86 378.27,378.28 378.86,377.31 379.05,375.95"/>
    </edge>
    <edge id=":0_16" function="internal">
        <lane id=":0_16_0" index="0" speed="15.00" length="16.10" shape="375.95,379.05 392.05,379.05"/>
        <lane id=":0_16_1" index="1" speed="15.00" length="16.10" shape="375.95,382.35 392.05,382.35"/>
    </edge>
    <edge id=":0_18" function="internal">
        <lane id=":0_18_0" index="0" speed="15.00" length="6.41" shape="375.95,382.35 380.19,382.96 382.02,384.05"/>
    </edge>
    <edge id=":0_19" function="internal">
        <lane id=":0_19_0" index="0" speed="15.00" length="2.41" shape="375.95,382.35 377.19,383.17 377.60,384.00"/>
    </edge>
    <edge id=":0_26" function="internal">
        <lane id=":0_26_0" index="0" speed="15.00" length="9.23" shape="382.02,384.05 383.23,384.78 385.04,387.81 385.65,392.05"/>
    </edge>
    <edge id=":0_27" function="internal">
        <lane id=":0_27_0" index="0" speed="15.00" length="2.41" shape="377.60,384.00 377.19,384.82 375.95,385.65"/>
    </edge>
    <edge id=":10_0" function="internal">
        <lane id=":10_0_0" index="0" speed="15.00" length="4.82" shape="382.35,-0.00 383.17,-1.24 384.00,-1.65 384.82,-1.24 385.65,-0.00"/>
    </edge>
    <edge id=":12_0" function="internal">
        <lane id=":12_0_0" index="0" speed="15.00" length="21.53" shape="132.21,132.95 110.69,132.95"/>
        <lane id=":12_0_1" index="1" speed="15.00" length="21.53" shape="132.21,129.65 110.69,129.65"/>
    </edge>
    <edge id=":12_2" function="internal">
        <lane id=":12_2_0" index="0" speed="15.00" length="4.78" shape="132.21,129.65 129.28,128.85 127.79,127.95"/>
    </edge>
    <edge id=":12_3" function="internal">
        <lane id=":12_3_0" index="0" speed="15.00" length="2.41" shape="132.21,129.65 130.98,128.83 130.56,128.00"/>
    </edge>
    <edge id=":12_12" function="internal">
        <lane id=":12_12_0" index="0" speed="15.00" length="17.25" shape="127.79,127.95 125.36,126.47 120.46,122.49 114.59,116.92"/>
    </edge>
    <edge id=":12_13" function="internal">
        <lane id=":12_13_0" index="0" speed="15.00" length="2.41" shape="130.56,128.00 130.98,127.17 132.21,126.35"/>
    </edge>
    <edge id=":12_4" function="internal">
        <lane id=":12_4_0" index="0" speed="15.00" length="16.97" shape="119.26,112.26 124.11,116.98 127.89,120.35 130.59,122.38 132.21,123.05"/>
    </edge>
    <edge id=":12_5" function="internal">
        <lane id=":12_5_0" index="0" speed="15.00" length="19.49" shape="116.92,114.59 122.29,119.74 126.63,123.41 129.93,125.62 132.21,126.35"/>
    </edge>
    <edge id=":12_6" function="internal">
        <lane id=":12_6_0" index="0" speed="15.00" length="26.38" shape="116.92,114.59 122.18,121.18 122.89,125.89 119.06,128.71 110.69,129.65"/>
    </edge>
    <edge id=":12_7" function="internal">
        <lane id=":12_7_0" index="0" speed="15.00" length="2.41" shape="116.92,114.59 117.22,116.05 116.92,116.92"/>
    </edge>
    <edge id=":12_14" function="internal">
        <lane id=":12_14_0" index="0" speed="15.00" length="2.41" shape="116.92,116.92 116.05,117.22 114.59,116.92"/>
    </edge>
    <edge id=":12_8" function="internal">
        <lane id=":12_8_0" index="0" speed="15.00" length="6.64" shape="110.69,123.05 112.80,122.81 113.76,122.10 113.58,120.92 112.26,119.26"/>
    </edge>
    <edge id=":12_9" function="internal">
        <lane id=":12_9_0" index="0" speed="15.00" length="21.53" shape="110.69,123.05 132.21,123.05"/>
        <lane id=":12_9_1" index="1" speed="15.00" length="21.53" shape="110.69,126.35 132.21,126.35"/>
    </edge>
    <edge id=":12_11" function="internal">
        <lane id=":12_11_0" index="0" speed="15.00" length="2.41" shape="110.69,126.35 111.92,127.17 112.34,128.00"/>
    </edge>
    <edge id=":12_15" function="internal">
        <lane id=":12_15_0" index="0" speed="15.00" length="2.41" shape="112.34,128.00 111.92,128.83 110.69,129.65"/>
    </edge>
    <edge id=":13_0" function="internal">
        <lane id=":13_0_0" index="0" speed="15.00" length="4.82" shape="-1.17,1.17 -1.46,-0.29 -1.17,-1.17 -0.29,-1.46 1.17,-1.17"/>
    </edge>
    <edge id=":14_0" function="internal">
        <lane id=":14_0_0" index="0" speed="15.00" length="4.82" shape="-0.00,129.65 -1.24,128.83 -1.65,128.00 -1.24,127.17 -0.00,126.35"/>
    </edge>
    <edge id=":2_0" function="internal">
        <lane id=":2_0_0" index="0" speed="15.00" length="4.82" shape="512.00,382.35 513.24,383.17 513.65,384.00 513.24,384.82 512.00,385.65"/>
    </edge>
    <edge id=":4_0" function="internal">
        <lane id=":4_0_0" index="0" speed="15.00" length="4.82" shape="385.65,512.00 384.83,513.24 384.00,513.65 383.18,513.24 382.35,512.00"/>
    </edge>
    <edge id=":5_0" function="internal">
        <lane id=":5_0_0" index="0" speed="15.00" length="5.00" shape="123.05,392.05 122.86,390.69 122.27,389.73 121.31,389.14 119.95,388.95"/>
    </edge>
    <edge id=":5_1" function="internal">
        <lane id=":5_1_0" index="0" speed="15.00" length="10.32" shape="126.35,392.05 125.95,389.25 124.75,387.25 122.75,386.05 119.95,385.65"/>
    </edge>
    <edge id=":5_2" function="internal">
        <lane id=":5_2_0" index="0" speed="15.00" length="15.64" shape="126.35,392.05 126.96,387.81 128.77,384.77 131.81,382.96 136.05,382.35"/>
    </edge>
    <edge id=":5_3" function="internal">
        <lane id=":5_3_0" index="0" speed="15.00" length="2.41" shape="126.35,392.05 127.17,390.81 128.00,390.40"/>
    </edge>
    <edge id=":5_12" function="internal">
        <lane id=":5_12_0" index="0" speed="15.00" length="2.41" shape="128.00,390.40 128.83,390.81 129.65,392.05"/>
    </edge>
    <edge id=":5_4" function="internal">
        <lane id=":5_4_0" index="0" speed="15.00" length="5.00" shape="136.05,388.95 134.69,389.14 133.72,389.72 133.14,390.69 132.95,392.05"/>
    </edge>
    <edge id=":5_5" function="internal">
        <lane id=":5_5_0" index="0" speed="15.00" length="16.10" shape="136.05,388.95 119.95,388.95"/>
        <lane id=":5_5_1" index="1" speed="15.00" length="16.10" shape="136.05,385.65 119.95,385.65"/>
    </edge>
    <edge id=":5_7" function="internal">
        <lane id=":5_7_0" index="0" speed="15.00" length="2.41" shape="136.05,385.65 134.81,384.83 134.40,384.00"/>
    </edge>
    <edge id=":5_13" function="internal">
        <lane id=":5_13_0" index="0" speed="15.00" length="2.41" shape="134.40,384.00 134.81,383.18 136.05,382.35"/>
    </edge>
    <edge id=":5_8" function="internal">
        <lane id=":5_8_0" index="0" speed="15.00" length="16.10" shape="119.95,379.05 136.05,379.05"/>
        <lane id=":5_8_1" index="1" speed="15.00" length="16.10" shape="119.95,382.35 136.05,382.35"/>
    </edge>
    <edge id=":5_10" function="internal">
        <lane id=":5_10_0" index="0" speed="15.00" length="6.41" shape="119.95,382.35 124.19,382.96 126.02,384.05"/>
    </edge>
    <edge id=":5_11" function="internal">
        <lane id=":5_11_0" index="0" speed="15.00" length="2.41" shape="119.95,382.35 121.19,383.17 121.60,384.00"/>
    </edge>
    <edge id=":5_14" function="internal">
        <lane id=":5_14_0" index="0" speed="15.00" length="9.23" shape="126.02,384.05 127.22,384.78 129.04,387.81 129.65,392.05"/>
    </edge>
    <edge id=":5_15" function="internal">
        <lane id=":5_15_0" index="0" speed="15.00" length="2.41" shape="121.60,384.00 121.19,384.82 119.95,385.65"/>
    </edge>
    <edge id=":6_0" function="internal">
        <lane id=":6_0_0" index="0" speed="15.00" length="4.82" shape="-0.00,385.65 -1.24,384.83 -1.65,384.00 -1.24,383.18 -0.00,382.35"/>
    </edge>
    <edge id=":7_0" function="internal">
        <lane id=":7_0_0" index="0" speed="15.00" length="4.82" shape="129.65,512.00 128.83,513.24 128.00,513.65 127.17,513.24 126.35,512.00"/>
    </edge>
    <edge id=":8_0" function="internal">
        <lane id=":8_0_0" index="0" speed="15.00" length="5.00" shape="379.05,136.05 378.86,134.69 378.28,133.72 377.31,133.14 375.95,132.95"/>
    </edge>
    <edge id=":8_1" function="internal">
        <lane id=":8_1_0" index="0" speed="15.00" length="16.10" shape="379.05,136.05 379.05,119.95"/>
        <lane id=":8_1_1" index="1" speed="15.00" length="16.10" shape="382.35,136.05 382.35,119.95"/>
    </edge>
    <edge id=":8_3" function="internal">
        <lane id=":8_3_0" index="0" speed="15.00" length="6.41" shape="382.35,136.05 382.96,131.81 384.05,129.98"/>
    </edge>
    <edge id=":8_4" function="internal">
        <lane id=":8_4_0" index="0" speed="15.00" length="2.41" shape="382.35,136.05 383.17,134.81 384.00,134.40"/>
    </edge>
    <edge id=":8_20" function="internal">
        <lane id=":8_20_0" index="0" speed="15.00" length="9.23" shape="384.05,129.98 384.78,128.78 387.81,126.96 392.05,126.35"/>
    </edge>
    <edge id=":8_21" function="internal">
        <lane id=":8_21_0" index="0" speed="15.00" length="2.41" shape="384.00,134.40 384.82,134.81 385.65,136.05"/>
    </edge>
    <edge id=":8_5" function="internal">
        <lane id=":8_5_0" index="0" speed="15.00" length="5.00" shape="392.05,132.95 390.69,133.14 389.73,133.72 389.14,134.69 388.95,136.05"/>
    </edge>
    <edge id=":8_6" function="internal">
        <lane id=":8_6_0" index="0" speed="15.00" length="16.10" shape="392.05,132.95 375.95,132.95"/>
        <lane id=":8_6_1" index="1" speed="15.00" length="16.10" shape="392.05,129.65 375.95,129.65"/>
    </edge>
    <edge id=":8_8" function="internal">
        <lane id=":8_8_0" index="0" speed="15.00" length="6.41" shape="392.05,129.65 387.81,129.04 385.98,127.95"/>
    </edge>
    <edge id=":8_9" function="internal">
        <lane id=":8_9_0" index="0" speed="15.00" length="2.41" shape="392.05,129.65 390.81,128.83 390.40,128.00"/>
    </edge>
    <edge id=":8_22" function="internal">
        <lane id=":8_22_0" index="0" speed="15.00" length="9.23" shape="385.98,127.95 384.77,127.23 382.96,124.19 382.35,119.95"/>
    </edge>
    <edge id=":8_23" function="internal">
        <lane id=":8_23_0" index="0" speed="15.00" length="2.41" shape="390.40,128.00 390.81,127.17 392.05,126.35"/>
    </edge>
    <edge id=":8_10" function="internal">
        <lane id=":8_10_0" index="0" speed="15.00" length="5.00" shape="388.95,119.95 389.14,121.31 389.72,122.27 390.69,122.86 392.05,123.05"/>
    </edge>
    <edge id=":8_11" function="internal">
        <lane id=":8_11_0" index="0" speed="15.00" length="16.10" shape="388.95,119.95 388.95,136.05"/>
        <lane id=":8_11_1" index="1" speed="15.00" length="16.10" shape="385.65,119.95 385.65,136.05"/>
    </edge>
    <edge id=":8_13" function="internal">
        <lane id=":8_13_0" index="0" speed="15.00" length="6.41" shape="385.65,119.95 385.04,124.19 383.95,126.02"/>
    </edge>
    <edge id=":8_14" function="internal">
        <lane id=":8_14_0" index="0" speed="15.00" length="2.41" shape="385.65,119.95 384.83,121.19 384.00,121.60"/>
    </edge>
    <edge id=":8_24" function="internal">
        <lane id=":8_24_0" index="0" speed="15.00" length="9.23" shape="383.95,126.02 383.22,127.23 380.19,129.04 375.95,129.65"/>
    </edge>
    <edge id=":8_25" function="internal">
        <lane id=":8_25_0" index="0" speed="15.00" length="2.41" shape="384.00,121.60 383.18,121.19 382.35,119.95"/>
    </edge>
    <edge id=":8_15" function="internal">
        <lane id=":8_15_0" index="0" speed="15.00" length="5.00" shape="375.95,123.05 377.31,122.86 378.27,122.27 378.86,121.31 379.05,119.95"/>
    </edge>
    <edge id=":8_16" function="internal">
        <lane id=":8_16_0" index="0" speed="15.00" length="16.10" shape="375.95,123.05 392.05,123.05"/>
        <lane id=":8_16_1" index="1" speed="15.00" length="16.10" shape="375.95,126.35 392.05,126.35"/>
    </edge>
    <edge id=":8_18" function="internal">
        <lane id=":8_18_0" index="0" speed="15.00" length="6.41" shape="375.95,126.35 380.19,126.96 382.02,128.05"/>
    </edge>
    <edge id=":8_19" function="internal">
        <lane id=":8_19_0" index="0" speed="15.00" length="2.41" shape="375.95,126.35 377.19,127.17 377.60,128.00"/>
    </edge>
    <edge id=":8_26" function="internal">
        <lane id=":8_26_0" index="0" speed="15.00" length="9.23" shape="382.02,128.05 383.23,128.77 385.04,131.81 385.65,136.05"/>
    </edge>
    <edge id=":8_27" function="internal">
        <lane id=":8_27_0" index="0" speed="15.00" length="2.41" shape="377.60,128.00 377.19,128.83 375.95,129.65"/>
    </edge>
    <edge id=":9_0" function="internal">
        <lane id=":9_0_0" index="0" speed="15.00" length="4.82" shape="512.00,126.35 513.24,127.17 513.65,128.00 513.24,128.83 512.00,129.65"/>
    </edge>

    <edge id="10i" from="12" to="14" priority="50">
        <lane id="10i_0" index="0" speed="15.00" length="110.69" shape="110.69,132.95 -0.00,132.95"/>
        <lane id="10i_1" index="1" speed="15.00" length="110.69" shape="110.69,129.65 -0.00,129.65"/>
    </edge>
    <edge id="10o" from="14" to="12" priority="50">
        <lane id="10o_0" index="0" speed="15.00" length="110.69" shape="-0.00,123.05 110.69,123.05"/>
        <lane id="10o_1" index="1" speed="15.00" length="110.69" shape="-0.00,126.35 110.69,126.35"/>
    </edge>
    <edge id="11i" from="9" to="8" priority="50">
        <lane id="11i_0" index="0" speed="15.00" length="119.95" shape="512.00,132.95 392.05,132.95"/>
        <lane id="11i_1" index="1" speed="15.00" length="119.95" shape="512.00,129.65 392.05,129.65"/>
    </edge>
    <edge id="11o" from="8" to="9" priority="50">
        <lane id="11o_0" index="0" speed="15.00" length="119.95" shape="392.05,123.05 512.00,123.05"/>
        <lane id="11o_1" index="1" speed="15.00" length="119.95" shape="392.05,126.35 512.00,126.35"/>
    </edge>
    <edge id="1i" from="5" to="0" priority="50">
        <lane id="1i_0" index="0" speed="15.00" length="239.90" shape="136.05,379.05 375.95,379.05"/>
        <lane id="1i_1" index="1" speed="15.00" length="239.90" shape="136.05,382.35 375.95,382.35"/>
    </edge>
    <edge id="1o" from="0" to="5" priority="50">
        <lane id="1o_0" index="0" speed="15.00" length="239.90" shape="375.95,388.95 136.05,388.95"/>
        <lane id="1o_1" index="1" speed="15.00" length="239.90" shape="375.95,385.65 136.05,385.65"/>
    </edge>
    <edge id="2i" from="2" to="0" priority="50">
        <lane id="2i_0" index="0" speed="15.00" length="119.95" shape="512.00,388.95 392.05,388.95"/>
        <lane id="2i_1" index="1" speed="15.00" length="119.95" shape="512.00,385.65 392.05,385.65"/>
    </edge>
    <edge id="2o" from="0" to="2" priority="50">
        <lane id="2o_0" index="0" speed="15.00" length="119.95" shape="392.05,379.05 512.00,379.05"/>
        <lane id="2o_1" index="1" speed="15.00" length="119.95" shape="392.05,382.35 512.00,382.35"/>
    </edge>
    <edge id="3i" from="8" to="0" priority="50">
        <lane id="3i_0" index="0" speed="15.00" length="239.90" shape="388.95,136.05 388.95,375.95"/>
        <lane id="3i_1" index="1" speed="15.00" length="239.90" shape="385.65,136.05 385.65,375.95"/>
    </edge>
    <edge id="3o" from="0" to="8" priority="50">
        <lane id="3o_0" index="0" speed="15.00" length="239.90" shape="379.05,375.95 379.05,136.05"/>
        <lane id="3o_1" index="1" speed="15.00" length="239.90" shape="382.35,375.95 382.35,136.05"/>
    </edge>
    <edge id="4i" from="4" to="0" priority="50">
        <lane id="4i_0" index="0" speed="15.00" length="119.95" shape="379.05,512.00 379.05,392.05"/>
        <lane id="4i_1" index="1" speed="15.00" length="119.95" shape="382.35,512.00 382.35,392.05"/>
    </edge>
    <edge id="4o" from="0" to="4" priority="50">
        <lane id="4o_0" index="0" speed="15.00" length="119.95" shape="388.95,392.05 388.95,512.00"/>
        <lane id="4o_1" index="1" speed="15.00" length="119.95" shape="385.65,392.05 385.65,512.00"/>
    </edge>
    <edge id="5i" from="6" to="5" priority="50">
        <lane id="5i_0" index="0" speed="15.00" length="119.95" shape="-0.00,379.05 119.95,379.05"/>
        <lane id="5i_1" index="1" speed="15.00" length="119.95" shape="-0.00,382.35 119.95,382.35"/>
    </edge>
    <edge id="5o" from="5" to="6" priority="50">
        <lane id="5o_0" index="0" speed="15.00" length="119.95" shape="119.95,388.95 -0.00,388.95"/>
        <lane id="5o_1" index="1" speed="15.00" length="119.95" shape="119.95,385.65 -0.00,385.65"/>
    </edge>
    <edge id="6i" from="5" to="7" priority="50">
        <lane id="6i_0" index="0" speed="15.00" length="119.95" shape="132.95,392.05 132.95,512.00"/>
        <lane id="6i_1" index="1" speed="15.00" length="119.95" shape="129.65,392.05 129.65,512.00"/>
    </edge>
    <edge id="6o" from="7" to="5" priority="50">
        <lane id="6o_0" index="0" speed="15.00" length="119.95" shape="123.05,512.00 123.05,392.05"/>
        <lane id="6o_1" index="1" speed="15.00" length="119.95" shape="126.35,512.00 126.35,392.05"/>
    </edge>
    <edge id="7i" from="8" to="12" priority="50">
        <lane id="7i_0" index="0" speed="15.00" length="243.74" shape="375.95,132.95 132.21,132.95"/>
        <lane id="7i_1" index="1" speed="15.00" length="243.74" shape="375.95,129.65 132.21,129.65"/>
    </edge>
    <edge id="7o" from="12" to="8" priority="50">
        <lane id="7o_0" index="0" speed="15.00" length="243.74" shape="132.21,123.05 375.95,123.05"/>
        <lane id="7o_1" index="1" speed="15.00" length="243.74" shape="132.21,126.35 375.95,126.35"/>
    </edge>
    <edge id="8i" from="8" to="10" priority="50">
        <lane id="8i_0" index="0" speed="15.00" length="119.95" shape="379.05,119.95 379.05,-0.00"/>
        <lane id="8i_1" index="1" speed="15.00" length="119.95" shape="382.35,119.95 382.35,-0.00"/>
    </edge>
    <edge id="8o" from="10" to="8" priority="50">
        <lane id="8o_0" index="0" speed="15.00" length="119.95" shape="388.95,-0.00 388.95,119.95"/>
        <lane id="8o_1" index="1" speed="15.00" length="119.95" shape="385.65,-0.00 385.65,119.95"/>
    </edge>
    <edge id="9i" from="12" to="13" priority="50">
        <lane id="9i_0" index="0" speed="15.00" length="163.71" shape="112.26,119.26 -3.50,3.50"/>
        <lane id="9i_1" index="1" speed="15.00" length="163.71" shape="114.59,116.92 -1.17,1.17"/>
    </edge>
    <edge id="9o" from="13" to="12" priority="50">
        <lane id="9o_0" index="0" speed="15.00" length="163.71" shape="3.50,-3.50 119.26,112.26"/>
        <lane id="9o_1" index="1" speed="15.00" length="163.71" shape="1.17,-1.17 116.92,114.59"/>
    </edge>

    <tlLogic id="0" type="static" programID="0" offset="0">
        <phase duration="33" state="GGGggrrrrrGGGggrrrrr"/>
        <phase duration="3" state="yyyggrrrrryyyggrrrrr"/>
        <phase duration="6" state="rrrGGrrrrrrrrGGrrrrr"/>
        <phase duration="3" state="rrryyrrrrrrrryyrrrrr"/>
        <phase duration="33" state="rrrrrGGGggrrrrrGGGgg"/>
        <phase duration="3" state="rrrrryyyggrrrrryyygg"/>
        <phase duration="6" state="rrrrrrrrGGrrrrrrrrGG"/>
        <phase duration="3" state="rrrrrrrryyrrrrrrrryy"/>
    </tlLogic>
    <tlLogic id="12" type="static" programID="0" offset="0">
        <phase duration="38" state="GGggrrrrGGGg"/>
        <phase duration="3" state="yyggrrrryyyg"/>
        <phase duration="6" state="rrGGrrrrrrrG"/>
        <phase duration="3" state="rryyrrrrrrry"/>
        <phase duration="37" state="rrrrGGGgGrrr"/>
        <phase duration="3" state="rrrryyyyyrrr"/>
    </tlLogic>
    <tlLogic id="5" type="static" programID="0" offset="0">
        <phase duration="38" state="rrrrGGGgGGgg"/>
        <phase duration="3" state="rrrryyygyygg"/>
        <phase duration="6" state="rrrrrrrGrrGG"/>
        <phase duration="3" state="rrrrrrryrryy"/>
        <phase duration="37" state="GGGgGrrrrrrr"/>
        <phase duration="3" state="yyyyyrrrrrrr"/>
    </tlLogic>
    <tlLogic id="8" type="static" programID="0" offset="0">
        <phase duration="33" state="GGGggrrrrrGGGggrrrrr"/>
        <phase duration="3" state="yyyggrrrrryyyggrrrrr"/>
        <phase duration="6" state="rrrGGrrrrrrrrGGrrrrr"/>
        <phase duration="3" state="rrryyrrrrrrrryyrrrrr"/>
        <phase duration="33" state="rrrrrGGGggrrrrrGGGgg"/>
        <phase duration="3" state="rrrrryyyggrrrrryyygg"/>
        <phase duration="6" state="rrrrrrrrGGrrrrrrrrGG"/>
        <phase duration="3" state="rrrrrrrryyrrrrrrrryy"/>
    </tlLogic>

    <junction id="0" type="traffic_light" x="384.00" y="384.00" incLanes="4i_0 4i_1 2i_0 2i_1 3i_0 3i_1 1i_0 1i_1" intLanes=":0_0_0 :0_1_0 :0_1_1 :0_20_0 :0_21_0 :0_5_0 :0_6_0 :0_6_1 :0_22_0 :0_23_0 :0_10_0 :0_11_0 :0_11_1 :0_24_0 :0_25_0 :0_15_0 :0_16_0 :0_16_1 :0_26_0 :0_27_0" shape="377.45,392.05 390.55,392.05 392.05,390.55 392.05,377.45 390.55,375.95 377.45,375.95 375.95,377.45 375.95,390.55">
        <request index="0" response="00000000000000000000" foes="10000010000011000000" cont="0"/>
        <request index="1" response="00000000000000000000" foes="01111110000111000000" cont="0"/>
        <request index="2" response="00000000000000000000" foes="01111110000111000000" cont="0"/>
        <request index="3" response="00000001110000000000" foes="01110001111111000000" cont="1"/>
        <request index="4" response="01000001100000100000" foes="01000001100000100000" cont="1"/>
        <request index="5" response="00000001100000000000" foes="01000001100000010000" cont="0"/>
        <request index="6" response="00000011100000001111" foes="11000011100000001111" cont="0"/>
        <request index="7" response="00000011100000001111" foes="11000011100000001111" cont="0"/>
        <request index="8" response="00111011100000001110" foes="00111111100000001110" cont="1"/>
        <request index="9" response="00110000010000001000" foes="00110000010000001000" cont="1"/>
        <request index="10" response="00000000000000000000" foes="00110000001000001000" cont="0"/>
        <request index="11" response="00000000000000000000" foes="01110000000111111000" cont="0"/>
        <request index="12" response="00000000000000000000" foes="01110000000111111000" cont="0"/>
        <request index="13" response="00000000000000000111" foes="11110000000111000111" cont="1"/>
        <request index="14" response="00001000000100000110" foes="00001000000100000110" cont="1"/>
        <request index="15" response="00000000000000000110" foes="00000100000100000110" cont="0"/>
        <request index="16" response="00000011110000001110" foes="00000011111100001110" cont="0"/>
        <request index="17" response="00000011110000001110" foes="00000011111100001110" cont="0"/>
        <request index="18" response="00000011100011101110" foes="00000011100011111110" cont="1"/>
        <request index="19" response="00000010000011000001" foes="00000010000011000001" cont="1"/>
    </junction>
    <junction id="10" type="priority" x="384.00" y="0.00" incLanes="8i_0 8i_1" intLanes=":10_0_0" shape="384.05,-0.00 377.45,-0.00 383.95,-0.00">
        <request index="0" response="0" foes="0" cont="0"/>
    </junction>
    <junction id="12" type="traffic_light" x="128.00" y="128.00" incLanes="7i_0 7i_1 9o_0 9o_1 10o_0 10o_1" intLanes=":12_0_0 :12_0_1 :12_12_0 :12_13_0 :12_4_0 :12_5_0 :12_6_0 :12_14_0 :12_8_0 :12_9_0 :12_9_1 :12_15_0" shape="132.21,134.55 132.21,121.45 120.39,111.13 111.13,120.39 110.69,121.45 110.69,134.55">
        <request index="0" response="000000000000" foes="100001000000" cont="0"/>
        <request index="1" response="000000000000" foes="100001000000" cont="0"/>
        <request index="2" response="011100000000" foes="011111000000" cont="1"/>
        <request index="3" response="011000110000" foes="011000110000" cont="1"/>
        <request index="4" response="011000000000" foes="011000001000" cont="0"/>
        <request index="5" response="011000000000" foes="011000001000" cont="0"/>
        <request index="6" response="011000000111" foes="111000000111" cont="0"/>
        <request index="7" response="000100000100" foes="000100000100" cont="1"/>
        <request index="8" response="000000000000" foes="000010000100" cont="0"/>
        <request index="9" response="000000000000" foes="000001111100" cont="0"/>
        <request index="10" response="000000000000" foes="000001111100" cont="0"/>
        <request index="11" response="000001000011" foes="000001000011" cont="1"/>
    </junction>
    <junction id="13" type="priority" x="0.00" y="0.00" incLanes="9i_0 9i_1" intLanes=":13_0_0" shape="0.04,-0.04 -4.63,4.63 -0.04,0.04">
        <request index="0" response="0" foes="0" cont="0"/>
    </junction>
    <junction id="14" type="priority" x="0.00" y="128.00" incLanes="10i_0 10i_1" intLanes=":14_0_0" shape="-0.00,127.95 -0.00,134.55 -0.00,128.05">
        <request index="0" response="0" foes="0" cont="0"/>
    </junction>
    <junction id="2" type="priority" x="512.00" y="384.00" incLanes="2o_0 2o_1" intLanes=":2_0_0" shape="512.00,384.05 512.00,377.45 512.00,383.95">
        <request index="0" response="0" foes="0" cont="0"/>
    </junction>
    <junction id="4" type="priority" x="384.00" y="512.00" incLanes="4o_0 4o_1" intLanes=":4_0_0" shape="383.95,512.00 390.55,512.00 384.05,512.00">
        <request index="0" response="0" foes="0" cont="0"/>
    </junction>
    <junction id="5" type="traffic_light" x="128.00" y="384.00" incLanes="6o_0 6o_1 1o_0 1o_1 5i_0 5i_1" intLanes=":5_0_0 :5_1_0 :5_2_0 :5_12_0 :5_4_0 :5_5_0 :5_5_1 :5_13_0 :5_8_0 :5_8_1 :5_14_0 :5_15_0" shape="121.45,392.05 134.55,392.05 136.05,390.55 136.05,377.45 119.95,377.45 119.95,390.55">
        <request index="0" response="000001100000" foes="100001100000" cont="0"/>
        <request index="1" response="000001100000" foes="100001100000" cont="0"/>