<routes>
            <vType id="car" accel="1.0" decel="4.5" sigma="0.7" length="5" minGap="3" maxSpeed="15" guiShape="passenger"/>

            <route id="right" edges="1i 2o" />
            <route id="left" edges="2i 1o" />
            <route id="down" edges="4i 3o" />
            <route id="up" edges="3i 4o" />
    <vehicle id="right_0" type="car" route="right" depart="1" departSpeed="5"/>
    <vehicle id="right_1" type="car" route="right" depart="12" departSpeed="5"/>
    <vehicle id="down_2" type="car" route="down" depart="13" departSpeed="5"/>
    <vehicle id="left_3" type="car" route="left" depart="22" departSpeed="5"/>
    <vehicle id="down_4" type="car" route="down" depart="22" departSpeed="5"/>
    <vehicle id="down_5" type="car" route="down" depart="24" departSpeed="5"/>
    <vehicle id="down_6" type="car" route="down" depart="32" departSpeed="5"/>
    <vehicle id="down_7" type="car" route="down" depart="39" departSpeed="5"/>
    <vehicle id="up_8" type="car" route="up" depart="41" departSpeed="5"/>
    <vehicle id="up_9" type="car" route="up" depart="45" departSpeed="5"/>
    <vehicle id="left_10" type="car" route="left" depart="47" departSpeed="5"/>
    <vehicle id="up_11" type="car" route="up" depart="51" departSpeed="5"/>
    <vehicle id="up_12" type="car" route="up" depart="54" departSpeed="5"/>
    <vehicle id="down_13" type="car" route="down" depart="55" departSpeed="5"/>
    <vehicle id="up_14" type="car" route="up" depart="55" departSpeed="5"/>
    <vehicle id="left_15" type="car" route="left" depart="56" departSpeed="5"/>
    <vehicle id="down_16" type="car" route="down" depart="56" departSpeed="5"/>
    <vehicle id="up_17" type="car" route="up" depart="58" departSpeed="5"/>
    <vehicle id="right_18" type="car" route="right" depart="59" departSpeed="5"/>
    <vehicle id="left_19" type="car" route="left" depart="64" departSpeed="5"/>
    <vehicle id="right_20" type="car" route="right" depart="66" departSpeed="5"/>
    <vehicle id="left_21" type="car" route="left" depart="66" departSpeed="5"/>
    <vehicle id="left_22" type="car" route="left" depart="69" departSpeed="5"/>
    <vehicle id="left_23" type="car" route="left" depart="70" departSpeed="5"/>
    <vehicle id="down_24" type="car" route="down" depart="75" departSpeed="5"/>
    <vehicle id="right_25" type="car" route="right" depart="76" departSpeed="5"/>
    <vehicle id="down_26" type="car" route="down" depart="81" departSpeed="5"/>
    <vehicle id="right_27" type="car" route="right" depart="89" departSpeed="5"/>
    <vehicle id="right_28" type="car" route="right" depart="104" departSpeed="5"/>
    <vehicle id="left_29" type="car" route="left" depart="105" departSpeed="5"/>
    <vehicle id="left_30" type="car" route="left" depart="108" departSpeed="5"/>
    <vehicle id="up_31" type="car" route="up" depart="108" departSpeed="5"/>
    <vehicle id="left_32" type="car" route="left" depart="109" departSpeed="5"/>
    <vehicle id="right_33" type="car" route="right" depart="110" departSpeed="5"/>
    <vehicle id="up_34" type="car" route="up" depart="114" departSpeed="5"/>
    <vehicle id="right_35" type="car" route="right" depart="122" departSpeed="5"/>
    <vehicle id="up_36" type="car" route="up" depart="126" departSpeed="5"/>
    <vehicle id="left_37" type="car" route="left" depart="128" departSpeed="5"/>
    <vehicle id="up_38" type="car" route="up" depart="128" departSpeed="5"/>
    <vehicle id="down_39" type="car" route="down" depart="130" departSpeed="5"/>
    <vehicle id="up_40" type="car" route="up" depart="130" departSpeed="5"/>
    <vehicle id="up_41" type="car" route="up" depart="138" departSpeed="5"/>
    <vehicle id="up_42" type="car" route="up" depart="140" departSpeed="5"/>
    <vehicle id="down_43" type="car" route="down" depart="142" departSpeed="5"/>
    <vehicle id="down_44" type="car" route="down" depart="146" departSpeed="5"/>
    <vehicle id="right_45" type="car" route="right" depart="147" departSpeed="5"/>
    <vehicle id="down_46" type="car" route="down" depart="150" departSpeed="5"/>
    <vehicle id="up_47" type="car" route="up" depart="150" departSpeed="5"/>
    <vehicle id="left_48" type="car" route="left" depart="151" departSpeed="5"/>
    <vehicle id="left_49" type="car" route="left" depart="152" departSpeed="5"/>
    <vehicle id="down_50" type="car" route="down" depart="152" departSpeed="5"/>
    <vehicle id="right_51" type="car" route="right" depart="153" departSpeed="5"/>
    <vehicle id="down_52" type="car" route="down" depart="154" departSpeed="5"/>
    <vehicle id="up_53" type="car" route="up" depart="154" departSpeed="5"/>
    <vehicle id="up_54" type="car" route="up" depart="155" departSpeed="5"/>
    <vehicle id="right_55" type="car" route="right" depart="159" departSpeed="5"/>
    <vehicle id="down_56" type="car" route="down" depart="161" departSpeed="5"/>
    <vehicle id="down_57" type="car" route="down" depart="164" departSpeed="5"/>
    <vehicle id="up_58" type="car" route="up" depart="168" departSpeed="5"/>
    <vehicle id="right_59" type="car" route="right" depart="169" departSpeed="5"/>
    <vehicle id="down_60" type="car" route="down" depart="169" departSpeed="5"/>
    <vehicle id="right_61" type="car" route="right" depart="172" departSpeed="5"/>
    <vehicle id="up_62" type="car" route="up" depart="173" departSpeed="5"/>
    <vehicle id="right_63" type="car" route="right" depart="178" departSpeed="5"/>
    <vehicle id="left_64" type="car" route="left" depart="186" departSpeed="5"/>
    <vehicle id="up_65" type="car" route="up" depart="188" departSpeed="5"/>
    <vehicle id="left_66" type="car" route="left" depart="190" departSpeed="5"/>
    <vehicle id="up_67" type="car" route="up" depart="190" departSpeed="5"/>
    <vehicle id="left_68" type="car" route="left" depart="192" departSpeed="5"/>
    <vehicle id="down_69" type="car" route="down" depart="197" departSpeed="5"/>
    <vehicle id="right_70" type="car" route="right" depart="199" departSpeed="5"/>
    <vehicle id="up_71" type="car" route="up" depart="199" departSpeed="5"/>
    <vehicle id="left_72" type="car" route="left" depart="201" departSpeed="5"/>
    <vehicle id="down_73" type="car" route="down" depart="210" departSpeed="5"/>
    <vehicle id="left_74" type="car" route="left" depart="211" departSpeed="5"/>
    <vehicle id="right_75" type="car" route="right" depart="212" departSpeed="5"/>
    <vehicle id="down_76" type="car" route="down" depart="213" departSpeed="5"/>
    <vehicle id="right_77" type="car" route="right" depart="215" departSpeed="5"/>
    <vehicle id="right_78" type="car" route="right" depart="220" departSpeed="5"/>
    <vehicle id="up_79" type="car" route="up" depart="222" departSpeed="5"/>
    <vehicle id="down_80" type="car" route="down" depart="223" departSpeed="5"/>
    <vehicle id="left_81" type="car" route="left" depart="226" departSpeed="5"/>
    <vehicle id="down_82" type="car" route="down" depart="232" departSpeed="5"/>
    <vehicle id="left_83" type="car" route="left" depart="235" departSpeed="5"/>
    <vehicle id="down_84" type="car" route="down" depart="235" departSpeed="5"/>
    <vehicle id="up_85" type="car" route="up" depart="235" departSpeed="5"/>
    <vehicle id="right_86" type="car" route="right" depart="238" departSpeed="5"/>
    <vehicle id="left_87" type="car" route="left" depart="238" departSpeed="5"/>
    <vehicle id="left_88" type="car" route="left" depart="243" departSpeed="5"/>
    <vehicle id="right_89" type="car" route="right" depart="248" departSpeed="5"/>
    <vehicle id="left_90" type="car" route="left" depart="248" departSpeed="5"/>
    <vehicle id="down_91" type="car" route="down" depart="249" departSpeed="5"/>
    <vehicle id="down_92" type="car" route="down" depart="259" departSpeed="5"/>
    <vehicle id="down_93" type="car" route="down" depart="265" departSpeed="5"/>
    <vehicle id="left_94" type="car" route="left" depart="269" departSpeed="5"/>
    <vehicle id="down_95" type="car" route="down" depart="271" departSpeed="5"/>
    <vehicle id="left_96" type="car" route="left" depart="273" departSpeed="5"/>
    <vehicle id="left_97" type="car" route="left" depart="277" departSpeed="5"/>
    <vehicle id="down_98" type="car" route="down" depart="277" departSpeed="5"/>
    <vehicle id="left_99" type="car" route="left" depart="278" departSpeed="5"/>
    <vehicle id="down_100" type="car" route="down" depart="284" departSpeed="5"/>
    <vehicle id="right_101" type="car" route="right" depart="287" departSpeed="5"/>
    <vehicle id="up_102" type="car" route="up" depart="288" departSpeed="5"/>
    <vehicle id="down_103" type="car" route="down" depart="289" departSpeed="5"/>
    <vehicle id="down_104" type="car" route="down" depart="295" departSpeed="5"/>
    <vehicle id="right_105" type="car" route="right" depart="296" departSpeed="5"/>
    <vehicle id="down_106" type="car" route="down" depart="298" departSpeed="5"/>
    <vehicle id="up_107" type="car" route="up" depart="302" departSpeed="5"/>
    <vehicle id="right_108" type="car" route="right" depart="305" departSpeed="5"/>
    <vehicle id="left_109" type="car" route="left" depart="311" departSpeed="5"/>
    <vehicle id="up_110" type="car" route="up" depart="311" departSpeed="5"/>
    <vehicle id="left_111" type="car" route="left" depart="313" departSpeed="5"/>
    <vehicle id="down_112" type="car" route="down" depart="313" departSpeed="5"/>
    <vehicle id="left_113" type="car" route="left" depart="319" departSpeed="5"/>
    <vehicle id="right_114" type="car" route="right" depart="320" departSpeed="5"/>
    <vehicle id="down_115" type="car" route="down" depart="323" departSpeed="5"/>
    <vehicle id="down_116" type="car" route="down" depart="328" departSpeed="5"/>
    <vehicle id="down_117" type="car" route="down" depart="329" departSpeed="5"/>
    <vehicle id="down_118" type="car" route="down" depart="334" departSpeed="5"/>
    <vehicle id="up_119" type="car" route="up" depart="336" departSpeed="5"/>
    <vehicle id="right_120" type="car" route="right" depart="338" departSpeed="5"/>
    <vehicle id="down_121" type="car" route="down" depart="338" departSpeed="5"/>
    <vehicle id="right_122" type="car" route="right" depart="339" departSpeed="5"/>
    <vehicle id="up_123" type="car" route="up" depart="339" departSpeed="5"/>
    <vehicle id="left_124" type="car" route="left" depart="341" departSpeed="5"/>
    <vehicle id="down_125" type="car" route="down" depart="348" departSpeed="5"/>
    <vehicle id="up_126" type="car" route="up" depart="356" departSpeed="5"/>
    <vehicle id="right_127" type="car" route="right" depart="358" departSpeed="5"/>
    <vehicle id="down_128" type="car" route="down" depart="361" departSpeed="5"/>
    <vehicle id="left_129" type="car" route="left" depart="363" departSpeed="5"/>
    <vehicle id="down_130" type="car" route="down" depart="363" departSpeed="5"/>
    <vehicle id="up_131" type="car" route="up" depart="365" departSpeed="5"/>
    <vehicle id="up_132" type="car" route="up" depart="366" departSpeed="5"/>
    <vehicle id="down_133" type="car" route="down" depart="368" departSpeed="5"/>
    <vehicle id="left_134" type="car" route="left" depart="370" departSpeed="5"/>
    <vehicle id="down_135" type="car" route="down" depart="371" departSpeed="5"/>
    <vehicle id="left_136" type="car" route="left" depart="375" departSpeed="5"/>
    <vehicle id="right_137" type="car" route="right" depart="377" departSpeed="5"/>
    <vehicle id="up_138" type="car" route="up" depart="380" departSpeed="5"/>
    <vehicle id="left_139" type="car" route="left" depart="381" departSpeed="5"/>
    <vehicle id="up_140" type="car" route="up" depart="382" departSpeed="5"/>
    <vehicle id="left_141" type="car" route="left" depart="385" departSpeed="5"/>
    <vehicle id="up_142" type="car" route="up" depart="386" departSpeed="5"/>
    <vehicle id="left_143" type="car" route="left" depart="388" departSpeed="5"/>
    <vehicle id="down_144" type="car" route="down" depart="391" departSpeed="5"/>
    <vehicle id="left_145" type="car" route="left" depart="392" departSpeed="5"/>
    <vehicle id="right_146" type="car" route="right" depart="394" departSpeed="5"/>
    <vehicle id="left_147" type="car" route="left" depart="394" departSpeed="5"/>
    <vehicle id="left_148" type="car" route="left" depart="395" departSpeed="5"/>
    <vehicle id="down_149" type="car" route="down" depart="397" departSpeed="5"/>
    <vehicle id="down_150" type="car" route="down" depart="399" departSpeed="5"/>
    <vehicle id="up_151" type="car" route="up" depart="399" departSpeed="5"/>
    <vehicle id="up_152" type="car" route="up" depart="401" departSpeed="5"/>
    <vehicle id="down_153" type="car" route="down" depart="402" departSpeed="5"/>
    <vehicle id="down_154" type="car" route="down" depart="403" departSpeed="5"/>
    <vehicle id="right_155" type="car" route="right" depart="405" departSpeed="5"/>
    <vehicle id="down_156" type="car" route="down" depart="405" departSpeed="5"/>
    <vehicle id="down_157" type="car" route="down" depart="409" departSpeed="5"/>
    <vehicle id="down_158" type="car" route="down" depart="413" departSpeed="5"/>
    <vehicle id="up_159" type="car" route="up" depart="413" departSpeed="5"/>
    <vehicle id="left_160" type="car" route="left" depart="414" departSpeed="5"/>
    <vehicle id="left_161" type="car" route="left" depart="416" departSpeed="5"/>
    <vehicle id="up_162" type="car" route="up" depart="417" departSpeed="5"/>
    <vehicle id="down_163" type="car" route="down" depart="420" departSpeed="5"/>
    <vehicle id="right_164" type="car" route="right" depart="425" departSpeed="5"/>
    <vehicle id="left_165" type="car" route="left" depart="426" departSpeed="5"/>
    <vehicle id="down_166" type="car" route="down" depart="427" departSpeed="5"/>
    <vehicle id="up_167" type="car" route="up" depart="427" departSpeed="5"/>
    <vehicle id="left_168" type="car" route="left" depart="428" departSpeed="5"/>
    <vehicle id="up_169" type="car" route="up" depart="429" departSpeed="5"/>
    <vehicle id="left_170" type="car" route="left" depart="430" departSpeed="5"/>
    <vehicle id="left_171" type="car" route="left" depart="434" departSpeed="5"/>
    <vehicle id="down_172" type="car" route="down" depart="434" departSpeed="5"/>
    <vehicle id="up_173" type="car" route="up" depart="434" departSpeed="5"/>
    <vehicle id="right_174" type="car" route="right" depart="440" departSpeed="5"/>
    <vehicle id="down_175" type="car" route="down" depart="446" departSpeed="5"/>
    <vehicle id="up_176" type="car" route="up" depart="451" departSpeed="5"/>
    <vehicle id="left_177" type="car" route="left" depart="456" departSpeed="5"/>
    <vehicle id="up_178" type="car" route="up" depart="465" departSpeed="5"/>
    <vehicle id="left_179" type="car" route="left" depart="472" departSpeed="5"/>
    <vehicle id="down_180" type="car" route="down" depart="473" departSpeed="5"/>
    <vehicle id="down_181" type="car" route="down" depart="479" departSpeed="5"/>
    <vehicle id="up_182" type="car" route="up" depart="479" departSpeed="5"/>
    <vehicle id="down_183" type="car" route="down" depart="480" departSpeed="5"/>
    <vehicle id="up_184" type="car" route="up" depart="480" departSpeed="5"/>
    <vehicle id="left_185" type="car" route="left" depart="483" departSpeed="5"/>
    <vehicle id="left_186" type="car" route="left" depart="487" departSpeed="5"/>
    <vehicle id="left_187" type="car" route="left" depart="489" departSpeed="5"/>
    <vehicle id="up_188" type="car" route="up" depart="490" departSpeed="5"/>
    <vehicle id="left_189" type="car" route="left" depart="493" departSpeed="5"/>
    <vehicle id="up_190" type="car" route="up" depart="493" departSpeed="5"/>
    <vehicle id="right_191" type="car" route="right" depart="496" departSpeed="5"/>
    <vehicle id="left_192" type="car" route="left" depart="498" departSpeed="5"/>
    <vehicle id="right_193" type="car" route="right" depart="500" departSpeed="5"/>
    <vehicle id="down_194" type="car" route="down" depart="500" departSpeed="5"/>
    <vehicle id="left_195" type="car" route="left" depart="501" departSpeed="5"/>
    <vehicle id="up_196" type="car" route="up" depart="511" departSpeed="5"/>
    <vehicle id="left_197" type="car" route="left" depart="513" departSpeed="5"/>
    <vehicle id="left_198" type="car" route="left" depart="515" departSpeed="5"/>
    <vehicle id="left_199" type="car" route="left" depart="522" departSpeed="5"/>
    <vehicle id="down_200" type="car" route="down" depart="524" departSpeed="5"/>
    <vehicle id="right_201" type="car" route="right" depart="525" departSpeed="5"/>
    <vehicle id="left_202" type="car" route="left" depart="529" departSpeed="5"/>
    <vehicle id="left_203" type="car" route="left" depart="532" departSpeed="5"/>
    <vehicle id="up_204" type="car" route="up" depart="533" departSpeed="5"/>
    <vehicle id="right_205" type="car" route="right" depart="546" departSpeed="5"/>
    <vehicle id="down_206" type="car" route="down" depart="549" departSpeed="5"/>
    <vehicle id="down_207" type="car" route="down" depart="554" departSpeed="5"/>
    <vehicle id="up_208" type="car" route="up" depart="556" departSpeed="5"/>
    <vehicle id="left_209" type="car" route="left" depart="558" departSpeed="5"/>
    <vehicle id="right_210" type="car" route="right" depart="559" departSpeed="5"/>
    <vehicle id="left_211" type="car" route="left" depart="559" departSpeed="5"/>
    <vehicle id="up_212" type="car" route="up" depart="562" departSpeed="5"/>
    <vehicle id="up_213" type="car" route="up" depart="573" departSpeed="5"/>
    <vehicle id="up_214" type="car" route="up" depart="575" departSpeed="5"/>
    <vehicle id="left_215" type="car" route="left" depart="579" departSpeed="5"/>
    <vehicle id="right_216" type="car" route="right" depart="580" departSpeed="5"/>
    <vehicle id="down_217" type="car" route="down" depart="589" departSpeed="5"/>
    <vehicle id="up_218" type="car" route="up" depart="589" departSpeed="5"/>
    <vehicle id="left_219" type="car" route="left" depart="593" departSpeed="5"/>
    <vehicle id="right_220" type="car" route="right" depart="598" departSpeed="5"/>
    <vehicle id="down_221" type="car" route="down" depart="598" departSpeed="5"/>
    <vehicle id="left_222" type="car" route="left" depart="601" departSpeed="5"/>
    <vehicle id="up_223" type="car" route="up" depart="601" departSpeed="5"/>
    <vehicle id="down_224" type="car" route="down" depart="603" departSpeed="5"/>
    <vehicle id="up_225" type="car" route="up" depart="603" departSpeed="5"/>
    <vehicle id="left_226" type="car" route="left" depart="604" departSpeed="5"/>
    <vehicle id="up_227" type="car" route="up" depart="606" departSpeed="5"/>
    <vehicle id="down_228" type="car" route="down" depart="607" departSpeed="5"/>
    <vehicle id="right_229" type="car" route="right" depart="609" departSpeed="5"/>
    <vehicle id="down_230" type="car" route="down" depart="612" departSpeed="5"/>
    <vehicle id="down_231" type="car" route="down" depart="613" departSpeed="5"/>
    <vehicle id="up_232" type="car" route="up" depart="616" departSpeed="5"/>
    <vehicle id="left_233" type="car" route="left" depart="619" departSpeed="5"/>
    <vehicle id="up_234" type="car" route="up" depart="622" departSpeed="5"/>
    <vehicle id="down_235" type="car" route="down" depart="630" departSpeed="5"/>
    <vehicle id="up_236" type="car" route="up" depart="631" departSpeed="5"/>
    <vehicle id="up_237" type="car" route="up" depart="635" departSpeed="5"/>
    <vehicle id="left_238" type="car" route="left" depart="638" departSpeed="5"/>
    <vehicle id="down_239" type="car" route="down" depart="640" departSpeed="5"/>
    <vehicle id="up_240" type="car" route="up" depart="641" departSpeed="5"/>
    <vehicle id="down_241" type="car" route="down" depart="643" departSpeed="5"/>
    <vehicle id="left_242" type="car" route="left" depart="647" departSpeed="5"/>
    <vehicle id="right_243" type="car" route="right" depart="650" departSpeed="5"/>
    <vehicle id="up_244" type="car" route="up" depart="651" departSpeed="5"/>
    <vehicle id="left_245" type="car" route="left" depart="658" departSpeed="5"/>
    <vehicle id="up_246" type="car" route="up" depart="659" departSpeed="5"/>
    <vehicle id="down_247" type="car" route="down" depart="661" departSpeed="5"/>
    <vehicle id="right_248" type="car" route="right" depart="670" departSpeed="5"/>
    <vehicle id="left_249" type="car" route="left" depart="672" departSpeed="5"/>
    <vehicle id="down_250" type="car" route="down" depart="673" departSpeed="5"/>
    <vehicle id="up_251" type="car" route="up" depart="673" departSpeed="5"/>
    <vehicle id="right_252" type="car" route="right" depart="676" departSpeed="5"/>
    <vehicle id="down_253" type="car" route="down" depart="678" departSpeed="5"/>
    <vehicle id="left_254" type="car" route="left" depart="682" departSpeed="5"/>
    <vehicle id="down_255" type="car" route="down" depart="683" departSpeed="5"/>
    <vehicle id="right_256" type="car" route="right" depart="687" departSpeed="5"/>
    <vehicle id="left_257" type="car" route="left" depart="688" departSpeed="5"/>
    <vehicle id="left_258" type="car" route="left" depart="690" departSpeed="5"/>
    <vehicle id="up_259" type="car" route="up" depart="692" departSpeed="5"/>
    <vehicle id="left_260" type="car" route="left" depart="693" departSpeed="5"/>
    <vehicle id="down_261" type="car" route="down" depart="696" departSpeed="5"/>
    <vehicle id="right_262" type="car" route="right" depart="697" departSpeed="5"/>
    <vehicle id="down_263" type="car" route="down" depart="697" departSpeed="5"/>
    <vehicle id="up_264" type="car" route="up" depart="697" departSpeed="5"/>
    <vehicle id="down_265" type="car" route="down" depart="701" departSpeed="5"/>
    <vehicle id="left_266" type="car" route="left" depart="705" departSpeed="5"/>
    <vehicle id="down_267" type="car" route="down" depart="705" departSpeed="5"/>
    <vehicle id="down_268" type="car" route="down" depart="711" departSpeed="5"/>
    <vehicle id="right_269" type="car" route="right" depart="713" departSpeed="5"/>
    <vehicle id="left_270" type="car" route="left" depart="716" departSpeed="5"/>
    <vehicle id="left_271" type="car" route="left" depart="720" departSpeed="5"/>
    <vehicle id="up_272" type="car" route="up" depart="720" departSpeed="5"/>
    <vehicle id="right_273" type="car" route="right" depart="722" departSpeed="5"/>
    <vehicle id="right_274" type="car" route="right" depart="724" departSpeed="5"/>
    <vehicle id="left_275" type="car" route="left" depart="724" departSpeed="5"/>
    <vehicle id="right_276" type="car" route="right" depart="727" departSpeed="5"/>
    <vehicle id="up_277" type="car" route="up" depart="728" departSpeed="5"/>
    <vehicle id="down_278" type="car" route="down" depart="730" departSpeed="5"/>
    <vehicle id="left_279" type="car" route="left" depart="731" departSpeed="5"/>
    <vehicle id="right_280" type="car" route="right" depart="732" departSpeed="5"/>
    <vehicle id="right_281" type="car" route="right" depart="734" departSpeed="5"/>
    <vehicle id="up_282" type="car" route="up" depart="735" departSpeed="5"/>
    <vehicle id="right_283" type="car" route="right" depart="738" departSpeed="5"/>
    <vehicle id="left_284" type="car" route="left" depart="738" departSpeed="5"/>
    <vehicle id="up_285" type="car" route="up" depart="738" departSpeed="5"/>
    <vehicle id="down_286" type="car" route="down" depart="744" departSpeed="5"/>
    <vehicle id="right_287" type="car" route="right" depart="745" departSpeed="5"/>
    <vehicle id="left_288" type="car" route="left" depart="747" departSpeed="5"/>
    <vehicle id="down_289" type="car" route="down" depart="747" departSpeed="5"/>
    <vehicle id="right_290" type="car" route="right" depart="749" departSpeed="5"/>
    <vehicle id="left_291" type="car" route="left" depart="749" departSpeed="5"/>
    <vehicle id="right_292" type="car" route="right" depart="750" departSpeed="5"/>
    <vehicle id="left_293" type="car" route="left" depart="751" departSpeed="5"/>
    <vehicle id="right_294" type="car" route="right" depart="753" departSpeed="5"/>
    <vehicle id="right_295" type="car" route="right" depart="754" departSpeed="5"/>
    <vehicle id="down_296" type="car" route="down" depart="754" departSpeed="5"/>
    <vehicle id="up_297" type="car" route="up" depart="755" departSpeed="5"/>
    <vehicle id="up_298" type="car" route="up" depart="756" departSpeed="5"/>
    <vehicle id="left_299" type="car" route="left" depart="757" departSpeed="5"/>
    <vehicle id="right_300" type="car" route="right" depart="758" departSpeed="5"/>
    <vehicle id="right_301" type="car" route="right" depart="759" departSpeed="5"/>
    <vehicle id="left_302" type="car" route="left" depart="762" departSpeed="5"/>
    <vehicle id="up_303" type="car" route="up" depart="763" departSpeed="5"/>
    <vehicle id="right_304" type="car" route="right" depart="766" departSpeed="5"/>
    <vehicle id="left_305" type="car" route="left" depart="768" departSpeed="5"/>
    <vehicle id="up_306" type="car" route="up" depart="771" departSpeed="5"/>
    <vehicle id="down_307" type="car" route="down" depart="774" departSpeed="5"/>
    <vehicle id="left_308" type="car" route="left" depart="776" departSpeed="5"/>
    <vehicle id="right_309" type="car" route="right" depart="781" departSpeed="5"/>
    <vehicle id="down_310" type="car" route="down" depart="781" departSpeed="5"/>
    <vehicle id="left_311" type="car" route="left" depart="783" departSpeed="5"/>
    <vehicle id="down_312" type="car" route="down" depart="783" departSpeed="5"/>
    <vehicle id="down_313" type="car" route="down" depart="786" departSpeed="5"/>
    <vehicle id="right_314" type="car" route="right" depart="792" departSpeed="5"/>
    <vehicle id="right_315" type="car" route="right" depart="793" departSpeed="5"/>
    <vehicle id="right_316" type="car" route="right" depart="794" departSpeed="5"/>
    <vehicle id="left_317" type="car" route="left" depart="798" departSpeed="5"/>
    <vehicle id="up_318" type="car" route="up" depart="799" departSpeed="5"/>
    <vehicle id="down_319" type="car" route="down" depart="800" departSpeed="5"/>
    <vehicle id="right_320" type="car" route="right" depart="803" departSpeed="5"/>
    <vehicle id="up_321" type="car" route="up" depart="806" departSpeed="5"/>
    <vehicle id="down_322" type="car" route="down" depart="808" departSpeed="5"/>
    <vehicle id="left_323" type="car" route="left" depart="810" departSpeed="5"/>
    <vehicle id="down_324" type="car" route="down" depart="815" departSpeed="5"/>
    <vehicle id="right_325" type="car" route="right" depart="816" departSpeed="5"/>
    <vehicle id="right_326" type="car" route="right" depart="817" departSpeed="5"/>
    <vehicle id="up_327" type="car" route="up" depart="818" departSpeed="5"/>
    <vehicle id="right_328" type="car" route="right" depart="819" departSpeed="5"/>
    <vehicle id="up_329" type="car" route="up" depart="819" departSpeed="5"/>
    <vehicle id="right_330" type="car" route="right" depart="820" departSpeed="5"/>
    <vehicle id="left_331" type="car" route="left" depart="821" departSpeed="5"/>
    <vehicle id="down_332" type="car" route="down" depart="821" departSpeed="5"/>
    <vehicle id="down_333" type="car" route="down" depart="822" departSpeed="5"/>
    <vehicle id="right_334" type="car" route="right" depart="823" departSpeed="5"/>
    <vehicle id="up_335" type="car" route="up" depart="827" departSpeed="5"/>
    <vehicle id="left_336" type="car" route="left" depart="828" departSpeed="5"/>
    <vehicle id="down_337" type="car" route="down" depart="829" departSpeed="5"/>
    <vehicle id="up_338" type="car" route="up" depart="831" departSpeed="5"/>
    <vehicle id="right_339" type="car" route="right" depart="835" departSpeed="5"/>
    <vehicle id="left_340" type="car" route="left" depart="837" departSpeed="5"/>
    <vehicle id="down_341" type="car" route="down" depart="837" departSpeed="5"/>
    <vehicle id="up_342" type="car" route="up" depart="837" departSpeed="5"/>
    <vehicle id="left_343" type="car" route="left" depart="846" departSpeed="5"/>
    <vehicle id="down_344" type="car" route="down" depart="848" departSpeed="5"/>
    <vehicle id="up_345" type="car" route="up" depart="849" departSpeed="5"/>
    <vehicle id="down_346" type="car" route="down" depart="851" departSpeed="5"/>
    <vehicle id="down_347" type="car" route="down" depart="853" departSpeed="5"/>
    <vehicle id="right_348" type="car" route="right" depart="854" departSpeed="5"/>
    <vehicle id="down_349" type="car" route="down" depart="854" departSpeed="5"/>
    <vehicle id="right_350" type="car" route="right" depart="855" departSpeed="5"/>
    <vehicle id="up_351" type="car" route="up" depart="855" departSpeed="5"/>
    <vehicle id="left_352" type="car" route="left" depart="856" departSpeed="5"/>
    <vehicle id="up_353" type="car" route="up" depart="861" departSpeed="5"/>
    <vehicle id="left_354" type="car" route="left" depart="869" departSpeed="5"/>
    <vehicle id="right_355" type="car" route="right" depart="878" departSpeed="5"/>
    <vehicle id="left_356" type="car" route="left" depart="884" departSpeed="5"/>
    <vehicle id="up_357" type="car" route="up" depart="884" departSpeed="5"/>
    <vehicle id="left_358" type="car" route="left" depart="887" departSpeed="5"/>
    <vehicle id="down_359" type="car" route="down" depart="887" departSpeed="5"/>
    <vehicle id="down_360" type="car" route="down" depart="891" departSpeed="5"/>
    <vehicle id="right_361" type="car" route="right" depart="892" departSpeed="5"/>
    <vehicle id="down_362" type="car" route="down" depart="892" departSpeed="5"/>
    <vehicle id="left_363" type="car" route="left" depart="893" departSpeed="5"/>
    <vehicle id="down_364" type="car" route="down" depart="893" departSpeed="5"/>
    <vehicle id="right_365" type="car" route="right" depart="901" departSpeed="5"/>