<routes>
            <vType id="car" accel="1.0" decel="4.5" sigma="0.7" length="5" minGap="3" maxSpeed="15" guiShape="passenger"/>

            <route id="right" edges="1i 2o" />
            <route id="left" edges="2i 1o" />
            <route id="down" edges="4i 3o" />
            <route id="up" edges="3i 4o" />
    <vehicle id="up_0" type="car" route="up" depart="1" departSpeed="5"/>
    <vehicle id="left_1" type="car" route="left" depart="3" departSpeed="5"/>
    <vehicle id="down_2" type="car" route="down" depart="12" departSpeed="5"/>
    <vehicle id="right_3" type="car" route="right" depart="15" departSpeed="5"/>
    <vehicle id="left_4" type="car" route="left" depart="16" departSpeed="5"/>
    <vehicle id="down_5" type="car" route="down" depart="16" departSpeed="5"/>
    <vehicle id="right_6" type="car" route="right" depart="17" departSpeed="5"/>
    <vehicle id="down_7" type="car" route="down" depart="19" departSpeed="5"/>
    <vehicle id="left_8" type="car" route="left" depart="21" departSpeed="5"/>
    <vehicle id="up_9" type="car" route="up" depart="23" departSpeed="5"/>
    <vehicle id="left_10" type="car" route="left" depart="25" departSpeed="5"/>
    <vehicle id="right_11" type="car" route="right" depart="28" departSpeed="5"/>
    <vehicle id="down_12" type="car" route="down" depart="30" departSpeed="5"/>
    <vehicle id="up_13" type="car" route="up" depart="33" departSpeed="5"/>
    <vehicle id="right_14" type="car" route="right" depart="34" departSpeed="5"/>
    <vehicle id="up_15" type="car" route="up" depart="34" departSpeed="5"/>
    <vehicle id="down_16" type="car" route="down" depart="36" departSpeed="5"/>
    <vehicle id="up_17" type="car" route="up" depart="36" departSpeed="5"/>
    <vehicle id="left_18" type="car" route="left" depart="37" departSpeed="5"/>
    <vehicle id="left_19" type="car" route="left" depart="38" departSpeed="5"/>
    <vehicle id="right_20" type="car" route="right" depart="41" departSpeed="5"/>
    <vehicle id="right_21" type="car" route="right" depart="45" departSpeed="5"/>
    <vehicle id="right_22" type="car" route="right" depart="46" departSpeed="5"/>
    <vehicle id="up_23" type="car" route="up" depart="46" departSpeed="5"/>
    <vehicle id="right_24" type="car" route="right" depart="47" departSpeed="5"/>
    <vehicle id="right_25" type="car" route="right" depart="48" departSpeed="5"/>
    <vehicle id="right_26" type="car" route="right" depart="56" departSpeed="5"/>
    <vehicle id="left_27" type="car" route="left" depart="56" departSpeed="5"/>
    <vehicle id="down_28" type="car" route="down" depart="60" departSpeed="5"/>
    <vehicle id="down_29" type="car" route="down" depart="61" departSpeed="5"/>
    <vehicle id="up_30" type="car" route="up" depart="62" departSpeed="5"/>
    <vehicle id="up_31" type="car" route="up" depart="65" departSpeed="5"/>
    <vehicle id="down_32" type="car" route="down" depart="66" departSpeed="5"/>
    <vehicle id="up_33" type="car" route="up" depart="66" departSpeed="5"/>
    <vehicle id="left_34" type="car" route="left" depart="67" departSpeed="5"/>
    <vehicle id="left_35" type="car" route="left" depart="68" departSpeed="5"/>
    <vehicle id="up_36" type="car" route="up" depart="68" departSpeed="5"/>
    <vehicle id="up_37" type="car" route="up" depart="71" departSpeed="5"/>
    <vehicle id="up_38" type="car" route="up" depart="73" departSpeed="5"/>
    <vehicle id="left_39" type="car" route="left" depart="75" departSpeed="5"/>
    <vehicle id="left_40" type="car" route="left" depart="80" departSpeed="5"/>
    <vehicle id="right_41" type="car" route="right" depart="87" departSpeed="5"/>
    <vehicle id="right_42" type="car" route="right" depart="90" departSpeed="5"/>
    <vehicle id="up_43" type="car" route="up" depart="91" departSpeed="5"/>
    <vehicle id="down_44" type="car" route="down" depart="96" departSpeed="5"/>
    <vehicle id="up_45" type="car" route="up" depart="100" departSpeed="5"/>
    <vehicle id="left_46" type="car" route="left" depart="101" departSpeed="5"/>
    <vehicle id="down_47" type="car" route="down" depart="101" departSpeed="5"/>
    <vehicle id="up_48" type="car" route="up" depart="101" departSpeed="5"/>
    <vehicle id="right_49" type="car" route="right" depart="102" departSpeed="5"/>
    <vehicle id="right_50" type="car" route="right" depart="104" departSpeed="5"/>
    <vehicle id="left_51" type="car" route="left" depart="110" departSpeed="5"/>
    <vehicle id="left_52" type="car" route="left" depart="111" departSpeed="5"/>
    <vehicle id="right_53" type="car" route="right" depart="113" departSpeed="5"/>
    <vehicle id="left_54" type="car" route="left" depart="113" departSpeed="5"/>
    <vehicle id="up_55" type="car" route="up" depart="113" departSpeed="5"/>
    <vehicle id="left_56" type="car" route="left" depart="114" departSpeed="5"/>
    <vehicle id="right_57" type="car" route="right" depart="115" departSpeed="5"/>
    <vehicle id="right_58" type="car" route="right" depart="117" departSpeed="5"/>
    <vehicle id="left_59" type="car" route="left" depart="117" departSpeed="5"/>
    <vehicle id="right_60" type="car" route="right" depart="118" departSpeed="5"/>
    <vehicle id="up_61" type="car" route="up" depart="121" departSpeed="5"/>
    <vehicle id="down_62" type="car" route="down" depart="124" departSpeed="5"/>
    <vehicle id="up_63" type="car" route="up" depart="130" departSpeed="5"/>
    <vehicle id="up_64" type="car" route="up" depart="131" departSpeed="5"/>
    <vehicle id="up_65" type="car" route="up" depart="134" departSpeed="5"/>
    <vehicle id="left_66" type="car" route="left" depart="143" departSpeed="5"/>
    <vehicle id="up_67" type="car" route="up" depart="143" departSpeed="5"/>
    <vehicle id="right_68" type="car" route="right" depart="144" departSpeed="5"/>
    <vehicle id="left_69" type="car" route="left" depart="144" departSpeed="5"/>
    <vehicle id="up_70" type="car" route="up" depart="149" departSpeed="5"/>
    <vehicle id="down_71" type="car" route="down" depart="150" departSpeed="5"/>
    <vehicle id="down_72" type="car" route="down" depart="151" departSpeed="5"/>
    <vehicle id="down_73" type="car" route="down" depart="157" departSpeed="5"/>
    <vehicle id="up_74" type="car" route="up" depart="157" departSpeed="5"/>
    <vehicle id="down_75" type="car" route="down" depart="165" departSpeed="5"/>
    <vehicle id="up_76" type="car" route="up" depart="165" departSpeed="5"/>
    <vehicle id="right_77" type="car" route="right" depart="169" departSpeed="5"/>
    <vehicle id="up_78" type="car" route="up" depart="169" departSpeed="5"/>
    <vehicle id="right_79" type="car" route="right" depart="170" departSpeed="5"/>
    <vehicle id="left_80" type="car" route="left" depart="170" departSpeed="5"/>
    <vehicle id="down_81" type="car" route="down" depart="170" departSpeed="5"/>
    <vehicle id="left_82" type="car" route="left" depart="173" departSpeed="5"/>
    <vehicle id="left_83" type="car" route="left" depart="174" departSpeed="5"/>
    <vehicle id="left_84" type="car" route="left" depart="175" departSpeed="5"/>
    <vehicle id="left_85" type="car" route="left" depart="178" departSpeed="5"/>
    <vehicle id="left_86" type="car" route="left" depart="179" departSpeed="5"/>
    <vehicle id="up_87" type="car" route="up" depart="180" departSpeed="5"/>
    <vehicle id="up_88" type="car" route="up" depart="183" departSpeed="5"/>
    <vehicle id="down_89" type="car" route="down" depart="186" departSpeed="5"/>
    <vehicle id="left_90" type="car" route="left" depart="187" departSpeed="5"/>
    <vehicle id="up_91" type="car" route="up" depart="187" departSpeed="5"/>
    <vehicle id="up_92" type="car" route="up" depart="188" departSpeed="5"/>
    <vehicle id="down_93" type="car" route="down" depart="190" departSpeed="5"/>
    <vehicle id="up_94" type="car" route="up" depart="190" departSpeed="5"/>
    <vehicle id="down_95" type="car" route="down" depart="192" departSpeed="5"/>
    <vehicle id="up_96" type="car" route="up" depart="194" departSpeed="5"/>
    <vehicle id="right_97" type="car" route="right" depart="196" departSpeed="5"/>
    <vehicle id="down_98" type="car" route="down" depart="197" departSpeed="5"/>
    <vehicle id="right_99" type="car" route="right" depart="203" departSpeed="5"/>
    <vehicle id="left_100" type="car" route="left" depart="203" departSpeed="5"/>
    <vehicle id="right_101" type="car" route="right" depart="204" departSpeed="5"/>
    <vehicle id="left_102" type="car" route="left" depart="204" departSpeed="5"/>
    <vehicle id="right_103" type="car" route="right" depart="207" departSpeed="5"/>
    <vehicle id="left_104" type="car" route="left" depart="207" departSpeed="5"/>
    <vehicle id="left_105" type="car" route="left" depart="208" departSpeed="5"/>
    <vehicle id="left_106" type="car" route="left" depart="209" departSpeed="5"/>
    <vehicle id="right_107" type="car" route="right" depart="210" departSpeed="5"/>
    <vehicle id="up_108" type="car" route="up" depart="210" departSpeed="5"/>
    <vehicle id="right_109" type="car" route="right" depart="212" departSpeed="5"/>
    <vehicle id="up_110" type="car" route="up" depart="213" departSpeed="5"/>
    <vehicle id="right_111" type="car" route="right" depart="214" departSpeed="5"/>
    <vehicle id="down_112" type="car" route="down" depart="214" departSpeed="5"/>
    <vehicle id="down_113" type="car" route="down" depart="218" departSpeed="5"/>
    <vehicle id="left_114" type="car" route="left" depart="219" departSpeed="5"/>
    <vehicle id="left_115" type="car" route="left" depart="220" departSpeed="5"/>
    <vehicle id="left_116" type="car" route="left" depart="224" departSpeed="5"/>
    <vehicle id="up_117" type="car" route="up" depart="226" departSpeed="5"/>
    <vehicle id="down_118" type="car" route="down" depart="227" departSpeed="5"/>
    <vehicle id="left_119" type="car" route="left" depart="228" departSpeed="5"/>
    <vehicle id="down_120" type="car" route="down" depart="229" departSpeed="5"/>
    <vehicle id="left_121" type="car" route="left" depart="231" departSpeed="5"/>
    <vehicle id="left_122" type="car" route="left" depart="233" departSpeed="5"/>
    <vehicle id="right_123" type="car" route="right" depart="235" departSpeed="5"/>
    <vehicle id="down_124" type="car" route="down" depart="236" departSpeed="5"/>
    <vehicle id="right_125" type="car" route="right" depart="239" departSpeed="5"/>
    <vehicle id="left_126" type="car" route="left" depart="240" departSpeed="5"/>
    <vehicle id="down_127" type="car" route="down" depart="240" departSpeed="5"/>
    <vehicle id="left_128" type="car" route="left" depart="242" departSpeed="5"/>
    <vehicle id="up_129" type="car" route="up" depart="247" departSpeed="5"/>
    <vehicle id="down_130" type="car" route="down" depart="248" departSpeed="5"/>
    <vehicle id="left_131" type="car" route="left" depart="249" departSpeed="5"/>
    <vehicle id="left_132" type="car" route="left" depart="251" departSpeed="5"/>
    <vehicle id="up_133" type="car" route="up" depart="251" departSpeed="5"/>
    <vehicle id="right_134" type="car" route="right" depart="253" departSpeed="5"/>
    <vehicle id="up_135" type="car" route="up" depart="256" departSpeed="5"/>
    <vehicle id="left_136" type="car" route="left" depart="263" departSpeed="5"/>
    <vehicle id="left_137" type="car" route="left" depart="265" departSpeed="5"/>
    <vehicle id="left_138" type="car" route="left" depart="273" departSpeed="5"/>
    <vehicle id="down_139" type="car" route="down" depart="275" departSpeed="5"/>
    <vehicle id="up_140" type="car" route="up" depart="277" departSpeed="5"/>
    <vehicle id="left_141" type="car" route="left" depart="284" departSpeed="5"/>
    <vehicle id="left_142" type="car" route="left" depart="287" departSpeed="5"/>
    <vehicle id="left_143" type="car" route="left" depart="290" departSpeed="5"/>
    <vehicle id="right_144" type="car" route="right" depart="295" departSpeed="5"/>
    <vehicle id="left_145" type="car" route="left" depart="295" departSpeed="5"/>
    <vehicle id="down_146" type="car" route="down" depart="295" departSpeed="5"/>
    <vehicle id="right_147" type="car" route="right" depart="297" departSpeed="5"/>
    <vehicle id="down_148" type="car" route="down" depart="297" departSpeed="5"/>
    <vehicle id="right_149" type="car" route="right" depart="300" departSpeed="5"/>
    <vehicle id="up_150" type="car" route="up" depart="300" departSpeed="5"/>
    <vehicle id="left_151" type="car" route="left" depart="304" departSpeed="5"/>
    <vehicle id="left_152" type="car" route="left" depart="305" departSpeed="5"/>
    <vehicle id="up_153" type="car" route="up" depart="308" departSpeed="5"/>
    <vehicle id="down_154" type="car" route="down" depart="309" departSpeed="5"/>
    <vehicle id="down_155" type="car" route="down" depart="310" departSpeed="5"/>
    <vehicle id="left_156" type="car" route="left" depart="320" departSpeed="5"/>
    <vehicle id="up_157" type="car" route="up" depart="320" departSpeed="5"/>
    <vehicle id="down_158" type="car" route="down" depart="326" departSpeed="5"/>
    <vehicle id="left_159" type="car" route="left" depart="329" departSpeed="5"/>
    <vehicle id="up_160" type="car" route="up" depart="332" departSpeed="5"/>
    <vehicle id="left_161" type="car" route="left" depart="333" departSpeed="5"/>
    <vehicle id="left_162" type="car" route="left" depart="335" departSpeed="5"/>
    <vehicle id="up_163" type="car" route="up" depart="339" departSpeed="5"/>
    <vehicle id="left_164" type="car" route="left" depart="344" departSpeed="5"/>
    <vehicle id="right_165" type="car" route="right" depart="351" departSpeed="5"/>
    <vehicle id="down_166" type="car" route="down" depart="353" departSpeed="5"/>
    <vehicle id="right_167" type="car" route="right" depart="362" departSpeed="5"/>
    <vehicle id="left_168" type="car" route="left" depart="365" departSpeed="5"/>
    <vehicle id="up_169" type="car" route="up" depart="366" departSpeed="5"/>
    <vehicle id="left_170" type="car" route="left" depart="368" departSpeed="5"/>
    <vehicle id="left_171" type="car" route="left" depart="370" departSpeed="5"/>
    <vehicle id="up_172" type="car" route="up" depart="370" departSpeed="5"/>
    <vehicle id="down_173" type="car" route="down" depart="373" departSpeed="5"/>
    <vehicle id="left_174" type="car" route="left" depart="376" departSpeed="5"/>
    <vehicle id="up_175" type="car" route="up" depart="377" departSpeed="5"/>
    <vehicle id="down_176" type="car" route="down" depart="378" departSpeed="5"/>
    <vehicle id="up_177" type="car" route="up" depart="378" departSpeed="5"/>
    <vehicle id="up_178" type="car" route="up" depart="381" departSpeed="5"/>
    <vehicle id="left_179" type="car" route="left" depart="388" departSpeed="5"/>
    <vehicle id="left_180" type="car" route="left" depart="390" departSpeed="5"/>
    <vehicle id="left_181" type="car" route="left" depart="391" departSpeed="5"/>
    <vehicle id="up_182" type="car" route="up" depart="392" departSpeed="5"/>
    <vehicle id="down_183" type="car" route="down" depart="400" departSpeed="5"/>
    <vehicle id="up_184" type="car" route="up" depart="402" departSpeed="5"/>
    <vehicle id="left_185" type="car" route="left" depart="404" departSpeed="5"/>
    <vehicle id="down_186" type="car" route="down" depart="411" departSpeed="5"/>
    <vehicle id="up_187" type="car" route="up" depart="413" departSpeed="5"/>
    <vehicle id="right_188" type="car" route="right" depart="414" departSpeed="5"/>
    <vehicle id="right_189" type="car" route="right" depart="417" departSpeed="5"/>
    <vehicle id="down_190" type="car" route="down" depart="417" departSpeed="5"/>
    <vehicle id="right_191" type="car" route="right" depart="419" departSpeed="5"/>
    <vehicle id="left_192" type="car" route="left" depart="423" departSpeed="5"/>
    <vehicle id="left_193" type="car" route="left" depart="424" departSpeed="5"/>
    <vehicle id="left_194" type="car" route="left" depart="428" departSpeed="5"/>
    <vehicle id="down_195" type="car" route="down" depart="431" departSpeed="5"/>
    <vehicle id="up_196" type="car" route="up" depart="431" departSpeed="5"/>
    <vehicle id="left_197" type="car" route="left" depart="432" departSpeed="5"/>
    <vehicle id="left_198" type="car" route="left" depart="434" departSpeed="5"/>
    <vehicle id="up_199" type="car" route="up" depart="434" departSpeed="5"/>
    <vehicle id="up_200" type="car" route="up" depart="446" departSpeed="5"/>
    <vehicle id="right_201" type="car" route="right" depart="448" departSpeed="5"/>
    <vehicle id="left_202" type="car" route="left" depart="448" departSpeed="5"/>
    <vehicle id="up_203" type="car" route="up" depart="452" departSpeed="5"/>
    <vehicle id="right_204" type="car" route="right" depart="455" departSpeed="5"/>
    <vehicle id="down_205" type="car" route="down" depart="458" departSpeed="5"/>
    <vehicle id="up_206" type="car" route="up" depart="464" departSpeed="5"/>
    <vehicle id="left_207" type="car" route="left" depart="465" departSpeed="5"/>
    <vehicle id="left_208" type="car" route="left" depart="469" departSpeed="5"/>
    <vehicle id="right_209" type="car" route="right" depart="470" departSpeed="5"/>
    <vehicle id="down_210" type="car" route="down" depart="474" departSpeed="5"/>
    <vehicle id="up_211" type="car" route="up" depart="474" departSpeed="5"/>
    <vehicle id="left_212" type="car" route="left" depart="484" departSpeed="5"/>
    <vehicle id="right_213" type="car" route="right" depart="486" departSpeed="5"/>
    <vehicle id="right_214" type="car" route="right" depart="488" departSpeed="5"/>
    <vehicle id="down_215" type="car" route="down" depart="491" departSpeed="5"/>
    <vehicle id="up_216" type="car" route="up" depart="497" departSpeed="5"/>
    <vehicle id="up_217" type="car" route="up" depart="499" departSpeed="5"/>
    <vehicle id="left_218" type="car" route="left" depart="503" departSpeed="5"/>
    <vehicle id="right_219" type="car" route="right" depart="508" departSpeed="5"/>
    <vehicle id="up_220" type="car" route="up" depart="511" departSpeed="5"/>
    <vehicle id="left_221" type="car" route="left" depart="513" departSpeed="5"/>
    <vehicle id="up_222" type="car" route="up" depart="517" departSpeed="5"/>
    <vehicle id="down_223" type="car" route="down" depart="521" departSpeed="5"/>
    <vehicle id="up_224" type="car" route="up" depart="524" departSpeed="5"/>
    <vehicle id="up_225" type="car" route="up" depart="526" departSpeed="5"/>
    <vehicle id="down_226" type="car" route="down" depart="531" departSpeed="5"/>
    <vehicle id="right_227" type="car" route="right" depart="533" departSpeed="5"/>
    <vehicle id="left_228" type="car" route="left" depart="536" departSpeed="5"/>
    <vehicle id="left_229" type="car" route="left" depart="548" departSpeed="5"/>
    <vehicle id="down_230" type="car" route="down" depart="549" departSpeed="5"/>
    <vehicle id="down_231" type="car" route="down" depart="552" departSpeed="5"/>
    <vehicle id="up_232" type="car" route="up" depart="552" departSpeed="5"/>
    <vehicle id="right_233" type="car" route="right" depart="553" departSpeed="5"/>
    <vehicle id="down_234" type="car" route="down" depart="559" departSpeed="5"/>
    <vehicle id="left_235" type="car" route="left" depart="560" departSpeed="5"/>
    <vehicle id="down_236" type="car" route="down" depart="574" departSpeed="5"/>
    <vehicle id="left_237" type="car" route="left" depart="575" departSpeed="5"/>
    <vehicle id="left_238" type="car" route="left" depart="576" departSpeed="5"/>
    <vehicle id="left_239" type="car" route="left" depart="577" departSpeed="5"/>
    <vehicle id="right_240" type="car" route="right" depart="578" departSpeed="5"/>
    <vehicle id="left_241" type="car" route="left" depart="579" departSpeed="5"/>
    <vehicle id="down_242" type="car" route="down" depart="580" departSpeed="5"/>
    <vehicle id="left_243" type="car" route="left" depart="581" departSpeed="5"/>
    <vehicle id="up_244" type="car" route="up" depart="581" departSpeed="5"/>
    <vehicle id="left_245" type="car" route="left" depart="584" departSpeed="5"/>
    <vehicle id="left_246" type="car" route="left" depart="590" departSpeed="5"/>
    <vehicle id="up_247" type="car" route="up" depart="593" departSpeed="5"/>
    <vehicle id="right_248" type="car" route="right" depart="596" departSpeed="5"/>
    <vehicle id="up_249" type="car" route="up" depart="600" departSpeed="5"/>
    <vehicle id="left_250" type="car" route="left" depart="605" departSpeed="5"/>
    <vehicle id="left_251" type="car" route="left" depart="612" departSpeed="5"/>
    <vehicle id="left_252" type="car" route="left" depart="616" departSpeed="5"/>
    <vehicle id="up_253" type="car" route="up" depart="616" departSpeed="5"/>
    <vehicle id="right_254" type="car" route="right" depart="619" departSpeed="5"/>
    <vehicle id="left_255" type="car" route="left" depart="619" departSpeed="5"/>
    <vehicle id="left_256" type="car" route="left" depart="625" departSpeed="5"/>
    <vehicle id="down_257" type="car" route="down" depart="627" departSpeed="5"/>
    <vehicle id="up_258" type="car" route="up" depart="629" departSpeed="5"/>
    <vehicle id="up_259" type="car" route="up" depart="631" departSpeed="5"/>
    <vehicle id="right_260" type="car" route="right" depart="634" departSpeed="5"/>
    <vehicle id="down_261" type="car" route="down" depart="638" departSpeed="5"/>
    <vehicle id="down_262" type="car" route="down" depart="640" departSpeed="5"/>
    <vehicle id="left_263" type="car" route="left" depart="642" departSpeed="5"/>
    <vehicle id="right_264" type="car" route="right" depart="654" departSpeed="5"/>
    <vehicle id="up_265" type="car" route="up" depart="656" departSpeed="5"/>
    <vehicle id="up_266" type="car" route="up" depart="659" departSpeed="5"/>
    <vehicle id="right_267" type="car" route="right" depart="661" departSpeed="5"/>
    <vehicle id="down_268" type="car" route="down" depart="662" departSpeed="5"/>
    <vehicle id="down_269" type="car" route="down" depart="664" departSpeed="5"/>
    <vehicle id="left_270" type="car" route="left" depart="665" departSpeed="5"/>
    <vehicle id="right_271" type="car" route="right" depart="666" departSpeed="5"/>
    <vehicle id="down_272" type="car" route="down" depart="667" departSpeed="5"/>
    <vehicle id="right_273" type="car" route="right" depart="668" departSpeed="5"/>
    <vehicle id="down_274" type="car" route="down" depart="669" departSpeed="5"/>
    <vehicle id="down_275" type="car" route="down" depart="670" departSpeed="5"/>
    <vehicle id="up_276" type="car" route="up" depart="672" departSpeed="5"/>
    <vehicle id="left_277" type="car" route="left" depart="673" departSpeed="5"/>
    <vehicle id="down_278" type="car" route="down" depart="673" departSpeed="5"/>
    <vehicle id="down_279" type="car" route="down" depart="677" departSpeed="5"/>
    <vehicle id="right_280" type="car" route="right" depart="682" departSpeed="5"/>
    <vehicle id="left_281" type="car" route="left" depart="683" departSpeed="5"/>
    <vehicle id="right_282" type="car" route="right" depart="684" departSpeed="5"/>
    <vehicle id="left_283" type="car" route="left" depart="688" departSpeed="5"/>
    <vehicle id="left_284" type="car" route="left" depart="689" departSpeed="5"/>
    <vehicle id="left_285" type="car" route="left" depart="691" departSpeed="5"/>
    <vehicle id="up_286" type="car" route="up" depart="694" departSpeed="5"/>
    <vehicle id="down_287" type="car" route="down" depart="695" departSpeed="5"/>
    <vehicle id="right_288" type="car" route="right" depart="696" departSpeed="5"/>
    <vehicle id="right_289" type="car" route="right" depart="702" departSpeed="5"/>
    <vehicle id="down_290" type="car" route="down" depart="704" departSpeed="5"/>
    <vehicle id="left_291" type="car" route="left" depart="706" departSpeed="5"/>
    <vehicle id="right_292" type="car" route="right" depart="710" departSpeed="5"/>
    <vehicle id="left_293" type="car" route="left" depart="712" departSpeed="5"/>
    <vehicle id="up_294" type="car" route="up" depart="713" departSpeed="5"/>
    <vehicle id="left_295" type="car" route="left" depart="717" departSpeed="5"/>
    <vehicle id="left_296" type="car" route="left" depart="718" departSpeed="5"/>
    <vehicle id="down_297" type="car" route="down" depart="726" departSpeed="5"/>
    <vehicle id="right_298" type="car" route="right" depart="727" departSpeed="5"/>
    <vehicle id="down_299" type="car" route="down" depart="728" departSpeed="5"/>
    <vehicle id="up_300" type="car" route="up" depart="731" departSpeed="5"/>
    <vehicle id="up_301" type="car" route="up" depart="732" departSpeed="5"/>
    <vehicle id="left_302" type="car" route="left" depart="733" departSpeed="5"/>
    <vehicle id="right_303" type="car" route="right" depart="735" departSpeed="5"/>
    <vehicle id="down_304" type="car" route="down" depart="737" departSpeed="5"/>
    <vehicle id="up_305" type="car" route="up" depart="739" departSpeed="5"/>
    <vehicle id="right_306" type="car" route="right" depart="743" departSpeed="5"/>
    <vehicle id="down_307" type="car" route="down" depart="746" departSpeed="5"/>
    <vehicle id="down_308" type="car" route="down" depart="755" departSpeed="5"/>
    <vehicle id="down_309" type="car" route="down" depart="757" departSpeed="5"/>
    <vehicle id="up_310" type="car" route="up" depart="758" departSpeed="5"/>
    <vehicle id="right_311" type="car" route="right" depart="759" departSpeed="5"/>
    <vehicle id="right_312" type="car" route="right" depart="762" departSpeed="5"/>
    <vehicle id="right_313" type="car" route="right" depart="764" departSpeed="5"/>
    <vehicle id="down_314" type="car" route="down" depart="767" departSpeed="5"/>
    <vehicle id="right_315" type="car" route="right" depart="768" departSpeed="5"/>
    <vehicle id="down_316" type="car" route="down" depart="769" departSpeed="5"/>
    <vehicle id="right_317" type="car" route="right" depart="771" departSpeed="5"/>
    <vehicle id="down_318" type="car" route="down" depart="774" departSpeed="5"/>
    <vehicle id="right_319" type="car" route="right" depart="775" departSpeed="5"/>
    <vehicle id="left_320" type="car" route="left" depart="776" departSpeed="5"/>
    <vehicle id="up_321" type="car" route="up" depart="777" departSpeed="5"/>
    <vehicle id="left_322" type="car" route="left" depart="780" departSpeed="5"/>
    <vehicle id="down_323" type="car" route="down" depart="781" departSpeed="5"/>
    <vehicle id="right_324" type="car" route="right" depart="783" departSpeed="5"/>
    <vehicle id="right_325" type="car" route="right" depart="789" departSpeed="5"/>
    <vehicle id="up_326" type="car" route="up" depart="789" departSpeed="5"/>
    <vehicle id="left_327" type="car" route="left" depart="793" departSpeed="5"/>
    <vehicle id="down_328" type="car" route="down" depart="793" departSpeed="5"/>
    <vehicle id="right_329" type="car" route="right" depart="803" departSpeed="5"/>
    <vehicle id="down_330" type="car" route="down" depart="803" departSpeed="5"/>
    <vehicle id="right_331" type="car" route="right" depart="804" departSpeed="5"/>
    <vehicle id="up_332" type="car" route="up" depart="806" departSpeed="5"/>
    <vehicle id="right_333" type="car" route="right" depart="808" departSpeed="5"/>
    <vehicle id="down_334" type="car" route="down" depart="811" departSpeed="5"/>
    <vehicle id="right_335" type="car" route="right" depart="817" departSpeed="5"/>
    <vehicle id="down_336" type="car" route="down" depart="818" departSpeed="5"/>
    <vehicle id="right_337" type="car" route="right" depart="820" departSpeed="5"/>
    <vehicle id="down_338" type="car" route="down" depart="824" departSpeed="5"/>
    <vehicle id="right_339" type="car" route="right" depart="826" departSpeed="5"/>
    <vehicle id="left_340" type="car" route="left" depart="829" departSpeed="5"/>
    <vehicle id="down_341" type="car" route="down" depart="833" departSpeed="5"/>
    <vehicle id="left_342" type="car" route="left" depart="834" departSpeed="5"/>
    <vehicle id="right_343" type="car" route="right" depart="835" departSpeed="5"/>
    <vehicle id="up_344" type="car" route="up" depart="837" departSpeed="5"/>
    <vehicle id="up_345" type="car" route="up" depart="840" departSpeed="5"/>
    <vehicle id="left_346" type="car" route="left" depart="841" departSpeed="5"/>
    <vehicle id="up_347" type="car" route="up" depart="842" departSpeed="5"/>
    <vehicle id="down_348" type="car" route="down" depart="843" departSpeed="5"/>
    <vehicle id="left_349" type="car" route="left" depart="844" departSpeed="5"/>
    <vehicle id="right_350" type="car" route="right" depart="845" departSpeed="5"/>
    <vehicle id="left_351" type="car" route="left" depart="845" departSpeed="5"/>
    <vehicle id="down_352" type="car" route="down" depart="846" departSpeed="5"/>
    <vehicle id="right_353" type="car" route="right" depart="847" departSpeed="5"/>
    <vehicle id="right_354" type="car" route="right" depart="849" departSpeed="5"/>
    <vehicle id="left_355" type="car" route="left" depart="849" departSpeed="5"/>
    <vehicle id="right_356" type="car" route="right" depart="850" departSpeed="5"/>
    <vehicle id="right_357" type="car" route="right" depart="852" departSpeed="5"/>
    <vehicle id="down_358" type="car" route="down" depart="852" departSpeed="5"/>
    <vehicle id="up_359" type="car" route="up" depart="852" departSpeed="5"/>
    <vehicle id="down_360" type="car" route="down" depart="855" departSpeed="5"/>
    <vehicle id="right_361" type="car" route="right" depart="861" departSpeed="5"/>
    <vehicle id="left_362" type="car" route="left" depart="868" departSpeed="5"/>
    <vehicle id="right_363" type="car" route="right" depart="871" departSpeed="5"/>
    <vehicle id="down_364" type="car" route="down" depart="883" departSpeed="5"/>
    <vehicle id="right_365" type="car" route="right" depart="886" departSpeed="5"/>