<?xml version="1.0" encoding="UTF-8"?>

<!-- generated on Sun Aug  5 17:25:02 2018 by SUMO netconvert Version 0.32.0
<?xml version="1.0" encoding="UTF-8"?>

<configuration xmlns:xsi="http://www.w3.org/2001/XMLSchema-instance" xsi:noNamespaceSchemaLocation="http://sumo.dlr.de/xsd/netconvertConfiguration.xsd">

    <input>
        <node-files value="cross.nod.xml"/>
        <edge-files value="cross.edg.xml"/>
    </input>

    <output>
        <output-file value="cross.net.xml"/>
    </output>

</configuration>
-->

<net version="0.27" xmlns:xsi="http://www.w3.org/2001/XMLSchema-instance" xsi:noNamespaceSchemaLocation="http://sumo.dlr.de/xsd/net_file.xsd">

    <location netOffset="384.00,384.00" convBoundary="0.00,0.00,512.00,512.00" origBoundary="-384.00,-384.00,128.00,128.00" projParameter="!"/>

    <edge id=":0_0" function="internal">
        <lane id=":0_0_0" index="0" speed="15.00" length="5.00" shape="379.05,392.05 378.86,390.69 378.28,389.73 377.31,389.14 375.95,388.95"/>
    </edge>
    <edge id=":0_1" function="internal">
        <lane id=":0_1_0" index="0" speed="15.00" length="16.10" shape="379.05,392.05 379.05,375.95"/>
        <lane id=":0_1_1" index="1" speed="15.00" length="16.10" shape="382.35,392.05 382.35,375.95"/>
    </edge>
    <edge id=":0_3" function="internal">
        <lane id=":0_3_0" index="0" speed="15.00" length="6.41" shape="382.35,392.05 382.96,387.81 384.05,385.98"/>
    </edge>
    <edge id=":0_4" function="internal">
        <lane id=":0_4_0" index="0" speed="15.00" length="2.41" shape="382.35,392.05 383.17,390.81 384.00,390.40"/>
    </edge>
    <edge id=":0_20" function="internal">
        <lane id=":0_20_0" index="0" speed="15.00" length="9.23" shape="384.05,385.98 384.78,384.77 387.81,382.96 392.05,382.35"/>
    </edge>
    <edge id=":0_21" function="internal">
        <lane id=":0_21_0" index="0" speed="15.00" length="2.41" shape="384.00,390.40 384.82,390.81 385.65,392.05"/>
    </edge>
    <edge id=":0_5" function="internal">
        <lane id=":0_5_0" index="0" speed="15.00" length="5.00" shape="392.05,388.95 390.69,389.14 389.73,389.72 389.14,390.69 388.95,392.05"/>
    </edge>
    <edge id=":0_6" function="internal">
        <lane id=":0_6_0" index="0" speed="15.00" length="16.10" shape="392.05,388.95 375.95,388.95"/>
        <lane id=":0_6_1" index="1" speed="15.00" length="16.10" shape="392.05,385.65 375.95,385.65"/>
    </edge>
    <edge id=":0_8" function="internal">
        <lane id=":0_8_0" index="0" speed="15.00" length="6.41" shape="392.05,385.65 387.81,385.04 385.98,383.95"/>
    </edge>
    <edge id=":0_9" function="internal">
        <lane id=":0_9_0" index="0" speed="15.00" length="2.41" shape="392.05,385.65 390.81,384.83 390.40,384.00"/>
    </edge>
    <edge id=":0_22" function="internal">
        <lane id=":0_22_0" index="0" speed="15.00" length="9.23" shape="385.98,383.95 384.77,383.22 382.96,380.19 382.35,375.95"/>
    </edge>
    <edge id=":0_23" function="internal">
        <lane id=":0_23_0" index="0" speed="15.00" length="2.41" shape="390.40,384.00 390.81,383.18 392.05,382.35"/>
    </edge>
    <edge id=":0_10" function="internal">
        <lane id=":0_10_0" index="0" speed="15.00" length="5.00" shape="388.95,375.95 389.14,377.31 389.72,378.27 390.69,378.86 392.05,379.05"/>
    </edge>
    <edge id=":0_11" function="internal">
        <lane id=":0_11_0" index="0" speed="15.00" length="16.10" shape="388.95,375.95 388.95,392.05"/>
        <lane id=":0_11_1" index="1" speed="15.00" length="16.10" shape="385.65,375.95 385.65,392.05"/>
    </edge>
    <edge id=":0_13" function="internal">
        <lane id=":0_13_0" index="0" speed="15.00" length="6.41" shape="385.65,375.95 385.04,380.19 383.95,382.02"/>
    </edge>
    <edge id=":0_14" function="internal">
        <lane id=":0_14_0" index="0" speed="15.00" length="2.41" shape="385.65,375.95 384.83,377.19 384.00,377.60"/>
    </edge>
    <edge id=":0_24" function="internal">
        <lane id=":0_24_0" index="0" speed="15.00" length="9.23" shape="383.95,382.02 383.22,383.23 380.19,385.04 375.95,385.65"/>
    </edge>
    <edge id=":0_25" function="internal">
        <lane id=":0_25_0" index="0" speed="15.00" length="2.41" shape="384.00,377.60 383.18,377.19 382.35,375.95"/>
    </edge>
    <edge id=":0_15" function="internal">
        <lane id=":0_15_0" index="0" speed="15.00" length="5.00" shape="375.95,379.05 377.31,378.86 378.27,378.28 378.86,377.31 379.05,375.95"/>
    </edge>
    <edge id=":0_16" function="internal">
        <lane id=":0_16_0" index="0" speed="15.00" length="16.10" shape="375.95,379.05 392.05,379.05"/>
        <lane id=":0_16_1" index="1" speed="15.00" length="16.10" shape="375.95,382.35 392.05,382.35"/>
    </edge>
    <edge id=":0_18" function="internal">
        <lane id=":0_18_0" index="0" speed="15.00" length="6.41" shape="375.95,382.35 380.19,382.96 382.02,384.05"/>
    </edge>
    <edge id=":0_19" function="internal">
        <lane id=":0_19_0" index="0" speed="15.00" length="2.41" shape="375.95,382.35 377.19,383.17 377.60,384.00"/>
    </edge>
    <edge id=":0_26" function="internal">
        <lane id=":0_26_0" index="0" speed="15.00" length="9.23" shape="382.02,384.05 383.23,384.78 385.04,387.81 385.65,392.05"/>
    </edge>
    <edge id=":0_27" function="internal">
        <lane id=":0_27_0" index="0" speed="15.00" length="2.41" shape="377.60,384.00 377.19,384.82 375.95,385.65"/>
    </edge>
    <edge id=":10_0" function="internal">
        <lane id=":10_0_0" index="0" speed="15.00" length="4.82" shape="382.35,-0.00 383.17,-1.24 384.00,-1.65 384.82,-1.24 385.65,-0.00"/>
    </edge>
    <edge id=":11_0" function="internal">
        <lane id=":11_0_0" index="0" speed="15.00" length="4.82" shape="127.26,1.48 126.52,0.18 126.52,-0.74 127.26,-1.29 128.74,-1.48"/>
    </edge>
    <edge id=":2_0" function="internal">
        <lane id=":2_0_0" index="0" speed="15.00" length="4.82" shape="512.00,382.35 513.24,383.17 513.65,384.00 513.24,384.82 512.00,385.65"/>
    </edge>
    <edge id=":4_0" function="internal">
        <lane id=":4_0_0" index="0" speed="15.00" length="4.82" shape="385.65,512.00 384.83,513.24 384.00,513.65 383.18,513.24 382.35,512.00"/>
    </edge>
    <edge id=":5_0" function="internal">
        <lane id=":5_0_0" index="0" speed="15.00" length="5.00" shape="123.05,392.05 122.86,390.69 122.27,389.73 121.31,389.14 119.95,388.95"/>
    </edge>
    <edge id=":5_1" function="internal">
        <lane id=":5_1_0" index="0" speed="15.00" length="10.32" shape="126.35,392.05 125.95,389.25 124.75,387.25 122.75,386.05 119.95,385.65"/>
    </edge>
    <edge id=":5_2" function="internal">
        <lane id=":5_2_0" index="0" speed="15.00" length="15.64" shape="126.35,392.05 126.96,387.81 128.77,384.77 131.81,382.96 136.05,382.35"/>
    </edge>
    <edge id=":5_3" function="internal">
        <lane id=":5_3_0" index="0" speed="15.00" length="2.41" shape="126.35,392.05 127.17,390.81 128.00,390.40"/>
    </edge>
    <edge id=":5_12" function="internal">
        <lane id=":5_12_0" index="0" speed="15.00" length="2.41" shape="128.00,390.40 128.83,390.81 129.65,392.05"/>
    </edge>
    <edge id=":5_4" function="internal">
        <lane id=":5_4_0" index="0" speed="15.00" length="5.00" shape="136.05,388.95 134.69,389.14 133.72,389.72 133.14,390.69 132.95,392.05"/>
    </edge>
    <edge id=":5_5" function="internal">
        <lane id=":5_5_0" index="0" speed="15.00" length="16.10" shape="136.05,388.95 119.95,388.95"/>
        <lane id=":5_5_1" index="1" speed="15.00" length="16.10" shape="136.05,385.65 119.95,385.65"/>
    </edge>
    <edge id=":5_7" function="internal">
        <lane id=":5_7_0" index="0" speed="15.00" length="2.41" shape="136.05,385.65 134.81,384.83 134.40,384.00"/>
    </edge>
    <edge id=":5_13" function="internal">
        <lane id=":5_13_0" index="0" speed="15.00" length="2.41" shape="134.40,384.00 134.81,383.18 136.05,382.35"/>
    </edge>
    <edge id=":5_8" function="internal">
        <lane id=":5_8_0" index="0" speed="15.00" length="16.10" shape="119.95,379.05 136.05,379.05"/>
        <lane id=":5_8_1" index="1" speed="15.00" length="16.10" shape="119.95,382.35 136.05,382.35"/>
    </edge>
    <edge id=":5_10" function="internal">
        <lane id=":5_10_0" index="0" speed="15.00" length="6.41" shape="119.95,382.35 124.19,382.96 126.02,384.05"/>
    </edge>
    <edge id=":5_11" function="internal">
        <lane id=":5_11_0" index="0" speed="15.00" length="2.41" shape="119.95,382.35 121.19,383.17 121.60,384.00"/>
    </edge>
    <edge id=":5_14" function="internal">
        <lane id=":5_14_0" index="0" speed="15.00" length="9.23" shape="126.02,384.05 127.22,384.78 129.04,387.81 129.65,392.05"/>
    </edge>
    <edge id=":5_15" function="internal">
        <lane id=":5_15_0" index="0" speed="15.00" length="2.41" shape="121.60,384.00 121.19,384.82 119.95,385.65"/>
    </edge>
    <edge id=":6_0" function="internal">
        <lane id=":6_0_0" index="0" speed="15.00" length="4.82" shape="-0.00,385.65 -1.24,384.83 -1.65,384.00 -1.24,383.18 -0.00,382.35"/>
    </edge>
    <edge id=":7_0" function="internal">
        <lane id=":7_0_0" index="0" speed="15.00" length="4.82" shape="129.65,512.00 128.83,513.24 128.00,513.65 127.17,513.24 126.35,512.00"/>
    </edge>
    <edge id=":8_0" function="internal">
        <lane id=":8_0_0" index="0" speed="15.00" length="21.04" shape="379.05,145.31 378.54,138.82 377.03,133.61 374.50,129.68 370.97,127.02"/>
    </edge>
    <edge id=":8_1" function="internal">
        <lane id=":8_1_0" index="0" speed="15.00" length="29.41" shape="379.05,145.31 379.05,115.90"/>
        <lane id=":8_1_1" index="1" speed="15.00" length="29.41" shape="382.35,145.31 382.35,115.90"/>
    </edge>
    <edge id=":8_3" function="internal">
        <lane id=":8_3_0" index="0" speed="15.00" length="9.71" shape="382.35,145.31 383.29,136.94 384.05,135.91"/>
    </edge>
    <edge id=":8_4" function="internal">
        <lane id=":8_4_0" index="0" speed="15.00" length="2.41" shape="382.35,145.31 383.17,144.08 384.00,143.66"/>
    </edge>
    <edge id=":8_20" function="internal">
        <lane id=":8_20_0" index="0" speed="15.00" length="16.67" shape="384.05,135.91 386.11,133.11 390.82,133.82 397.41,139.08"/>
    </edge>
    <edge id=":8_21" function="internal">
        <lane id=":8_21_0" index="0" speed="15.00" length="2.41" shape="384.00,143.66 384.82,144.08 385.65,145.31"/>
    </edge>
    <edge id=":8_5" function="internal">
        <lane id=":8_5_0" index="0" speed="15.00" length="6.64" shape="392.74,143.74 391.08,142.42 389.90,142.24 389.19,143.20 388.95,145.31"/>
    </edge>
    <edge id=":8_6" function="internal">
        <lane id=":8_6_0" index="0" speed="15.00" length="28.11" shape="392.74,143.74 387.61,138.77 382.56,134.41 377.15,130.52 370.97,127.02"/>
        <lane id=":8_6_1" index="1" speed="15.00" length="28.11" shape="395.08,141.41 389.81,136.34 384.46,131.76 378.76,127.67 372.44,124.07"/>
    </edge>
    <edge id=":8_8" function="internal">
        <lane id=":8_8_0" index="0" speed="15.00" length="11.35" shape="395.08,141.41 389.51,135.04 387.97,132.59"/>
    </edge>
    <edge id=":8_9" function="internal">
        <lane id=":8_9_0" index="0" speed="15.00" length="2.41" shape="395.08,141.41 394.78,139.95 395.08,139.08"/>
    </edge>
    <edge id=":8_22" function="internal">
        <lane id=":8_22_0" index="0" speed="15.00" length="17.86" shape="387.97,132.59 385.53,128.67 383.15,122.29 382.35,115.90"/>
    </edge>
    <edge id=":8_23" function="internal">
        <lane id=":8_23_0" index="0" speed="15.00" length="2.41" shape="395.08,139.08 395.95,138.78 397.41,139.08"/>
    </edge>
    <edge id=":8_10" function="internal">
        <lane id=":8_10_0" index="0" speed="15.00" length="24.04" shape="388.95,115.90 389.62,120.97 391.65,126.14 395.02,131.39 399.74,136.74"/>
    </edge>
    <edge id=":8_11" function="internal">
        <lane id=":8_11_0" index="0" speed="15.00" length="29.41" shape="388.95,115.90 388.95,145.31"/>
        <lane id=":8_11_1" index="1" speed="15.00" length="29.41" shape="385.65,115.90 385.65,145.31"/>
    </edge>
    <edge id=":8_13" function="internal">
        <lane id=":8_13_0" index="0" speed="15.00" length="7.58" shape="385.65,115.90 384.82,121.95 383.95,123.14"/>
    </edge>
    <edge id=":8_14" function="internal">
        <lane id=":8_14_0" index="0" speed="15.00" length="2.41" shape="385.65,115.90 384.83,117.14 384.00,117.55"/>
    </edge>
    <edge id=":8_24" function="internal">
        <lane id=":8_24_0" index="0" speed="15.00" length="13.00" shape="383.95,123.14 382.35,125.33 378.22,126.03 372.44,124.07"/>
    </edge>
    <edge id=":8_25" function="internal">
        <lane id=":8_25_0" index="0" speed="15.00" length="2.41" shape="384.00,117.55 383.18,117.14 382.35,115.90"/>
    </edge>
    <edge id=":8_15" function="internal">
        <lane id=":8_15_0" index="0" speed="15.00" length="5.70" shape="375.39,118.16 376.99,118.71 378.14,118.51 378.82,117.58 379.05,115.90"/>
    </edge>
    <edge id=":8_16" function="internal">
        <lane id=":8_16_0" index="0" speed="15.00" length="30.22" shape="375.39,118.16 381.98,121.96 388.27,126.48 394.21,131.48 399.74,136.74"/>
        <lane id=":8_16_1" index="1" speed="15.00" length="30.22" shape="373.92,121.11 380.37,124.81 386.37,129.12 392.01,133.91 397.41,139.08"/>
    </edge>
    <edge id=":8_18" function="internal">
        <lane id=":8_18_0" index="0" speed="15.00" length="8.97" shape="373.92,121.11 379.05,124.83 380.55,126.99"/>
    </edge>
    <edge id=":8_19" function="internal">
        <lane id=":8_19_0" index="0" speed="15.00" length="2.56" shape="373.92,121.11 374.65,122.41 374.65,123.33 374.53,123.42"/>
    </edge>
    <edge id=":8_26" function="internal">
        <lane id=":8_26_0" index="0" speed="15.00" length="19.38" shape="380.55,126.99 382.72,130.10 384.92,136.93 385.65,145.31"/>
    </edge>
    <edge id=":8_27" function="internal">
        <lane id=":8_27_0" index="0" speed="15.00" length="2.26" shape="374.53,123.42 373.92,123.88 372.44,124.07"/>
    </edge>
    <edge id=":9_0" function="internal">
        <lane id=":9_0_0" index="0" speed="15.00" length="4.82" shape="513.17,254.83 513.46,256.29 513.17,257.17 512.29,257.46 510.83,257.17"/>
    </edge>

    <edge id="11i" from="9" to="8" priority="50">
        <lane id="11i_0" index="0" speed="15.00" length="163.71" shape="508.50,259.50 392.74,143.74"/>
        <lane id="11i_1" index="1" speed="15.00" length="163.71" shape="510.83,257.17 395.08,141.41"/>
    </edge>
    <edge id="11o" from="8" to="9" priority="50">
        <lane id="11o_0" index="0" speed="15.00" length="163.71" shape="399.74,136.74 515.50,252.50"/>
        <lane id="11o_1" index="1" speed="15.00" length="163.71" shape="397.41,139.08 513.17,254.83"/>
    </edge>
    <edge id="1i" from="5" to="0" priority="50">
        <lane id="1i_0" index="0" speed="15.00" length="239.90" shape="136.05,379.05 375.95,379.05"/>
        <lane id="1i_1" index="1" speed="15.00" length="239.90" shape="136.05,382.35 375.95,382.35"/>
    </edge>
    <edge id="1o" from="0" to="5" priority="50">
        <lane id="1o_0" index="0" speed="15.00" length="239.90" shape="375.95,388.95 136.05,388.95"/>
        <lane id="1o_1" index="1" speed="15.00" length="239.90" shape="375.95,385.65 136.05,385.65"/>
    </edge>
    <edge id="2i" from="2" to="0" priority="50">
        <lane id="2i_0" index="0" speed="15.00" length="119.95" shape="512.00,388.95 392.05,388.95"/>
        <lane id="2i_1" index="1" speed="15.00" length="119.95" shape="512.00,385.65 392.05,385.65"/>
    </edge>
    <edge id="2o" from="0" to="2" priority="50">
        <lane id="2o_0" index="0" speed="15.00" length="119.95" shape="392.05,379.05 512.00,379.05"/>
        <lane id="2o_1" index="1" speed="15.00" length="119.95" shape="392.05,382.35 512.00,382.35"/>
    </edge>
    <edge id="3i" from="8" to="0" priority="50">
        <lane id="3i_0" index="0" speed="15.00" length="230.64" shape="388.95,145.31 388.95,375.95"/>
        <lane id="3i_1" index="1" speed="15.00" length="230.64" shape="385.65,145.31 385.65,375.95"/>
    </edge>
    <edge id="3o" from="0" to="8" priority="50">
        <lane id="3o_0" index="0" speed="15.00" length="230.64" shape="379.05,375.95 379.05,145.31"/>
        <lane id="3o_1" index="1" speed="15.00" length="230.64" shape="382.35,375.95 382.35,145.31"/>
    </edge>
    <edge id="4i" from="4" to="0" priority="50">
        <lane id="4i_0" index="0" speed="15.00" length="119.95" shape="379.05,512.00 379.05,392.05"/>
        <lane id="4i_1" index="1" speed="15.00" length="119.95" shape="382.35,512.00 382.35,392.05"/>
    </edge>
    <edge id="4o" from="0" to="4" priority="50">
        <lane id="4o_0" index="0" speed="15.00" length="119.95" shape="388.95,392.05 388.95,512.00"/>
        <lane id="4o_1" index="1" speed="15.00" length="119.95" shape="385.65,392.05 385.65,512.00"/>
    </edge>
    <edge id="5i" from="6" to="5" priority="50">
        <lane id="5i_0" index="0" speed="15.00" length="119.95" shape="-0.00,379.05 119.95,379.05"/>
        <lane id="5i_1" index="1" speed="15.00" length="119.95" shape="-0.00,382.35 119.95,382.35"/>
    </edge>
    <edge id="5o" from="5" to="6" priority="50">
        <lane id="5o_0" index="0" speed="15.00" length="119.95" shape="119.95,388.95 -0.00,388.95"/>
        <lane id="5o_1" index="1" speed="15.00" length="119.95" shape="119.95,385.65 -0.00,385.65"/>
    </edge>
    <edge id="6i" from="5" to="7" priority="50">
        <lane id="6i_0" index="0" speed="15.00" length="119.95" shape="132.95,392.05 132.95,512.00"/>
        <lane id="6i_1" index="1" speed="15.00" length="119.95" shape="129.65,392.05 129.65,512.00"/>
    </edge>
    <edge id="6o" from="7" to="5" priority="50">
        <lane id="6o_0" index="0" speed="15.00" length="119.95" shape="123.05,512.00 123.05,392.05"/>
        <lane id="6o_1" index="1" speed="15.00" length="119.95" shape="126.35,512.00 126.35,392.05"/>
    </edge>
    <edge id="7i" from="8" to="11" priority="50">
        <lane id="7i_0" index="0" speed="15.00" length="274.12" shape="370.97,127.02 125.79,4.43"/>
        <lane id="7i_1" index="1" speed="15.00" length="274.12" shape="372.44,124.07 127.26,1.48"/>
    </edge>
    <edge id="7o" from="11" to="8" priority="50">
        <lane id="7o_0" index="0" speed="15.00" length="274.12" shape="130.21,-4.43 375.39,118.16"/>
        <lane id="7o_1" index="1" speed="15.00" length="274.12" shape="128.74,-1.48 373.92,121.11"/>
    </edge>
    <edge id="8i" from="8" to="10" priority="50">
        <lane id="8i_0" index="0" speed="15.00" length="115.90" shape="379.05,115.90 379.05,-0.00"/>
        <lane id="8i_1" index="1" speed="15.00" length="115.90" shape="382.35,115.90 382.35,-0.00"/>
    </edge>
    <edge id="8o" from="10" to="8" priority="50">
        <lane id="8o_0" index="0" speed="15.00" length="115.90" shape="388.95,-0.00 388.95,115.90"/>
        <lane id="8o_1" index="1" speed="15.00" length="115.90" shape="385.65,-0.00 385.65,115.90"/>
    </edge>

    <tlLogic id="0" type="static" programID="0" offset="0">
        <phase duration="33" state="GGGggrrrrrGGGggrrrrr"/>
        <phase duration="3" state="yyyggrrrrryyyggrrrrr"/>
        <phase duration="6" state="rrrGGrrrrrrrrGGrrrrr"/>
        <phase duration="3" state="rrryyrrrrrrrryyrrrrr"/>
        <phase duration="33" state="rrrrrGGGggrrrrrGGGgg"/>
        <phase duration="3" state="rrrrryyyggrrrrryyygg"/>
        <phase duration="6" state="rrrrrrrrGGrrrrrrrrGG"/>
        <phase duration="3" state="rrrrrrrryyrrrrrrrryy"/>
    </tlLogic>
    <tlLogic id="5" type="static" programID="0" offset="0">
        <phase duration="38" state="rrrrGGGgGGgg"/>
        <phase duration="3" state="rrrryyygyygg"/>
        <phase duration="6" state="rrrrrrrGrrGG"/>
        <phase duration="3" state="rrrrrrryrryy"/>
        <phase duration="37" state="GGGgGrrrrrrr"/>
        <phase duration="3" state="yyyyyrrrrrrr"/>
    </tlLogic>
    <tlLogic id="8" type="static" programID="0" offset="0">
        <phase duration="33" state="GGGggrrrrrGGGggrrrrr"/>
        <phase duration="3" state="yyyggrrrrryyyggrrrrr"/>
        <phase duration="6" state="rrrGGrrrrrrrrGGrrrrr"/>
        <phase duration="3" state="rrryyrrrrrrrryyrrrrr"/>
        <phase duration="33" state="rrrrrGGGggrrrrrGGGgg"/>
        <phase duration="3" state="rrrrryyyggrrrrryyygg"/>
        <phase duration="6" state="rrrrrrrrGGrrrrrrrrGG"/>
        <phase duration="3" state="rrrrrrrryyrrrrrrrryy"/>
    </tlLogic>

    <junction id="0" type="traffic_light" x="384.00" y="384.00" incLanes="4i_0 4i_1 2i_0 2i_1 3i_0 3i_1 1i_0 1i_1" intLanes=":0_0_0 :0_1_0 :0_1_1 :0_20_0 :0_21_0 :0_5_0 :0_6_0 :0_6_1 :0_22_0 :0_23_0 :0_10_0 :0_11_0 :0_11_1 :0_24_0 :0_25_0 :0_15_0 :0_16_0 :0_16_1 :0_26_0 :0_27_0" shape="377.45,392.05 390.55,392.05 392.05,390.55 392.05,377.45 390.55,375.95 377.45,375.95 375.95,377.45 375.95,390.55">
        <request index="0" response="00000000000000000000" foes="10000010000011000000" cont="0"/>
        <request index="1" response="00000000000000000000" foes="01111110000111000000" cont="0"/>
        <request index="2" response="00000000000000000000" foes="01111110000111000000" cont="0"/>
        <request index="3" response="00000001110000000000" foes="01110001111111000000" cont="1"/>
        <request index="4" response="01000001100000100000" foes="01000001100000100000" cont="1"/>
        <request index="5" response="00000001100000000000" foes="01000001100000010000" cont="0"/>
        <request index="6" response="00000011100000001111" foes="11000011100000001111" cont="0"/>
        <request index="7" response="00000011100000001111" foes="11000011100000001111" cont="0"/>
        <request index="8" response="00111011100000001110" foes="00111111100000001110" cont="1"/>
        <request index="9" response="00110000010000001000" foes="00110000010000001000" cont="1"/>
        <request index="10" response="00000000000000000000" foes="00110000001000001000" cont="0"/>
        <request index="11" response="00000000000000000000" foes="01110000000111111000" cont="0"/>
        <request index="12" response="00000000000000000000" foes="01110000000111111000" cont="0"/>
        <request index="13" response="00000000000000000111" foes="11110000000111000111" cont="1"/>
        <request index="14" response="00001000000100000110" foes="00001000000100000110" cont="1"/>
        <request index="15" response="00000000000000000110" foes="00000100000100000110" cont="0"/>
        <request index="16" response="00000011110000001110" foes="00000011111100001110" cont="0"/>
        <request index="17" response="00000011110000001110" foes="00000011111100001110" cont="0"/>
        <request index="18" response="00000011100011101110" foes="00000011100011111110" cont="1"/>
        <request index="19" response="00000010000011000001" foes="00000010000011000001" cont="1"/>
    </junction>
    <junction id="10" type="priority" x="384.00" y="0.00" incLanes="8i_0 8i_1" intLanes=":10_0_0" shape="384.05,-0.00 377.45,-0.00 383.95,-0.00">
        <request index="0" response="0" foes="0" cont="0"/>
    </junction>
    <junction id="11" type="priority" x="128.00" y="0.00" incLanes="7i_0 7i_1" intLanes=":11_0_0" shape="128.02,-0.04 125.07,5.86 127.98,0.04">
        <request index="0" response="0" foes="0" cont="0"/>
    </junction>
    <junction id="2" type="priority" x="512.00" y="384.00" incLanes="2o_0 2o_1" intLanes=":2_0_0" shape="512.00,384.05 512.00,377.45 512.00,383.95">
        <request index="0" response="0" foes="0" cont="0"/>
    </junction>
    <junction id="4" type="priority" x="384.00" y="512.00" incLanes="4o_0 4o_1" intLanes=":4_0_0" shape="383.95,512.00 390.55,512.00 384.05,512.00">
        <request index="0" response="0" foes="0" cont="0"/>
    </junction>
    <junction id="5" type="traffic_light" x="128.00" y="384.00" incLanes="6o_0 6o_1 1o_0 1o_1 5i_0 5i_1" intLanes=":5_0_0 :5_1_0 :5_2_0 :5_12_0 :5_4_0 :5_5_0 :5_5_1 :5_13_0 :5_8_0 :5_8_1 :5_14_0 :5_15_0" shape="121.45,392.05 134.55,392.05 136.05,390.55 136.05,377.45 119.95,377.45 119.95,390.55">
        <request index="0" response="000001100000" foes="100001100000" cont="0"/>
        <request index="1" response="000001100000" foes="100001100000" cont="0"/>
        <request index="2" response="011101100000" foes="011111100000" cont="0"/>
        <request index="3" response="010000010000" foes="010000010000" cont="1"/>
        <request index="4" response="000000000000" foes="010000001000" cont="0"/>
        <request index="5" response="000000000000" foes="110000000111" cont="0"/>
        <request index="6" response="000000000000" foes="110000000111" cont="0"/>
        <request index="7" response="001100000100" foes="001100000100" cont="1"/>
        <request index="8" response="000000000000" foes="000010000100" cont="0"/>
        <request index="9" response="000000000000" foes="000010000100" cont="0"/>
        <request index="10" response="000001110000" foes="000001111100" cont="1"/>
        <request index="11" response="000001100011" foes="000001100011" cont="1"/>
    </junction>
    <junction id="6" type="priority" x="0.00" y="384.00" incLanes="5o_0 5o_1" intLanes=":6_0_0" shape="-0.00,383.95 -0.00,390.55 -0.00,384.05">
        <request index="0" response="0" foes="0" cont="0"/>
    </junction>
    <junction id="7" type="priority" x="128.00" y="512.00" incLanes="6i_0 6i_1" intLanes=":7_0_0" shape="127.95,512.00 134.55,512.00 128.05,512.00">
        <request index="0" response="0" foes="0" cont="0"/>
    </junction>
    <junction id="8" type="traffic_light" x="384.00" y="128.00" incLanes="3o_0 3o_1 11i_0 11i_1 8o_0 8o_1 7o_0 7o_1" intLanes=":8_0_0 :8_1_0 :8_1_1 :8_20_0 :8_21_0 :8_5_0 :8_6_0 :8_6_1 :8_22_0 :8_23_0 :8_10_0 :8_11_0 :8_11_1 :8_24_0 :8_25_0 :8_15_0 :8_16_0 :8_16_1 :8_26_0 :8_27_0" shape="377.45,145.31 390.55,145.31 391.61,144.87 400.87,135.61 390.55,115.90 377.45,115.90 376.11,116.73 370.25,128.45">
        <request index="0" response="00000000000000000000" foes="10000010000011000000" cont="0"/>
        <request index="1" response="00000000000000000000" foes="01111110000111000000" cont="0"/>
        <request index="2" response="00000000000000000000" foes="01111110000111000000" cont="0"/>
        <request index="3" response="00000001110000000000" foes="01110001111111000000" cont="1"/>
        <request index="4" response="01000001100000100000" foes="01000001100000100000" cont="1"/>
        <request index="5" response="00000001100000000000" foes="01000001100000010000" cont="0"/>
        <request index="6" response="00000011100000001111" foes="11000011100000001111" cont="0"/>
        <request index="7" response="00000011100000001111" foes="11000011100000001111" cont="0"/>
        <request index="8" response="00111011100000001110" foes="00111111100000001110" cont="1"/>
        <request index="9" response="00110000010000001000" foes="00110000010000001000" cont="1"/>
        <request index="10" response="00000000000000000000" foes="00110000001000001000" cont="0"/>
        <request index="11" response="00000000000000000000" foes="01110000000111111000" cont="0"/>
        <request index="12" response="00000000000000000000" foes="01110000000111111000" cont="0"/>
        <request index="13" response="00000000000000000111" foes="11110000000111000111" cont="1"/>
        <request index="14" response="00001000000100000110" foes="00001000000100000110" cont="1"/>
        <request index="15" response="00000000000000000110" foes="00000100000100000110" cont="0"/>
        <request index="16" response="00000011110000001110" foes="00000011111100001110" cont="0"/>
        <request index="17" response="00000011110000001110" foes="00000011111100001110" cont="0"/>
        <request index="18" response="00000011100011101110" foes="00000011100011111110" cont="1"/>
        <request index="19" response="00000010000011000001" foes="00000010000011000001" cont="1"/>
    </junction>
    <junction id="9" type="priority" x="512.00" y="256.00" incLanes="11o_0 11o_1" intLanes=":9_0_0" shape="511.96,256.04 516.63,251.37 512.04,255.96">
        <request index="0" response="0" foes="0" cont="0"/>
    </junction>

    <junction id=":0_20_0" type="internal" x="384.05" y="385.98" incLanes=":0_3_0 3i_0 3i_1" intLanes=":0_6_0 :0_6_1 :0_8_0 :0_9_0 :0_10_0 :0_11_0 :0_11_1 :0_16_0 :0_16_1 :0_18_0"/>
    <junction id=":0_21_0" type="internal" x="384.00" y="390.40" incLanes=":0_4_0 1i_1 2i_0 3i_0 3i_1" intLanes=":0_5_0 :0_11_0 :0_11_1 :0_18_0"/>
    <junction id=":0_22_0" type="internal" x="385.98" y="383.95" incLanes=":0_8_0 1i_0 1i_1" intLanes=":0_1_0 :0_1_1 :0_3_0 :0_11_0 :0_11_1 :0_13_0 :0_14_0 :0_15_0 :0_16_0 :0_16_1"/>
    <junction id=":0_23_0" type="internal" x="390.40" y="384.00" incLanes=":0_9_0 1i_0 1i_1 3i_0 4i_1" intLanes=":0_3_0 :0_10_0 :0_16_0 :0_16_1"/>
    <junction id=":0_24_0" type="internal" x="383.95" y="382.02" incLanes=":0_13_0 4i_0 4i_1" intLanes=":0_0_0 :0_1_0 :0_1_1 :0_6_0 :0_6_1 :0_8_0 :0_16_0 :0_16_1 :0_18_0 :0_19_0"/>
    <junction id=":0_25_0" type="internal" x="384.00" y="377.60" incLanes=":0_14_0 1i_0 2i_1 4i_0 4i_1" intLanes=":0_1_0 :0_1_1 :0_8_0 :0_15_0"/>
    <junction id=":0_26_0" type="internal" x="382.02" y="384.05" incLanes=":0_18_0 2i_0 2i_1" intLanes=":0_1_0 :0_1_1 :0_3_0 :0_4_0 :0_5_0 :0_6_0 :0_6_1 :0_11_0 :0_11_1 :0_13_0"/>
    <junction id=":0_27_0" type="internal" x="377.60" y="384.00" incLanes=":0_19_0 2i_0 2i_1 3i_1 4i_0" intLanes=":0_0_0 :0_6_0 :0_6_1 :0_13_0"/>
    <junction id=":5_12_0" type="internal" x="128.00" y="390.40" incLanes=":5_3_0 1o_0 5i_1" intLanes=":5_4_0 :5_10_0"/>
    <junction id=":5_13_0" type="internal" x="134.40" y="384.00" incLanes=":5_7_0 5i_0 5i_1 6o_1" intLanes=":5_2_0 :5_8_0 :5_8_1"/>
    <junction id=":5_14_0" type="internal" x="126.02" y="384.05" incLanes=":5_10_0 1o_0 1o_1" intLanes=":5_2_0 :5_3_0 :5_4_0 :5_5_0 :5_5_1"/>