<routes>
            <vType id="car" accel="1.0" decel="4.5" sigma="0.7" length="5" minGap="3" maxSpeed="15" guiShape="passenger"/>

            <route id="right" edges="1i 2o" />
            <route id="left" edges="2i 1o" />
            <route id="down" edges="4i 3o" />
            <route id="up" edges="3i 4o" />
    <vehicle id="right_0" type="car" route="right" depart="7" departSpeed="5"/>
    <vehicle id="up_1" type="car" route="up" depart="8" departSpeed="5"/>
    <vehicle id="up_2" type="car" route="up" depart="11" departSpeed="5"/>
    <vehicle id="left_3" type="car" route="left" depart="14" departSpeed="5"/>
    <vehicle id="down_4" type="car" route="down" depart="18" departSpeed="5"/>
    <vehicle id="right_5" type="car" route="right" depart="21" departSpeed="5"/>
    <vehicle id="left_6" type="car" route="left" depart="22" departSpeed="5"/>
    <vehicle id="left_7" type="car" route="left" depart="23" departSpeed="5"/>
    <vehicle id="right_8" type="car" route="right" depart="25" departSpeed="5"/>
    <vehicle id="right_9" type="car" route="right" depart="27" departSpeed="5"/>
    <vehicle id="right_10" type="car" route="right" depart="28" departSpeed="5"/>
    <vehicle id="right_11" type="car" route="right" depart="38" departSpeed="5"/>
    <vehicle id="down_12" type="car" route="down" depart="39" departSpeed="5"/>
    <vehicle id="left_13" type="car" route="left" depart="42" departSpeed="5"/>
    <vehicle id="up_14" type="car" route="up" depart="44" departSpeed="5"/>
    <vehicle id="down_15" type="car" route="down" depart="45" departSpeed="5"/>
    <vehicle id="up_16" type="car" route="up" depart="48" departSpeed="5"/>
    <vehicle id="left_17" type="car" route="left" depart="52" departSpeed="5"/>
    <vehicle id="up_18" type="car" route="up" depart="52" departSpeed="5"/>
    <vehicle id="down_19" type="car" route="down" depart="61" departSpeed="5"/>
    <vehicle id="right_20" type="car" route="right" depart="65" departSpeed="5"/>
    <vehicle id="right_21" type="car" route="right" depart="66" departSpeed="5"/>
    <vehicle id="down_22" type="car" route="down" depart="68" departSpeed="5"/>
    <vehicle id="up_23" type="car" route="up" depart="69" departSpeed="5"/>
    <vehicle id="up_24" type="car" route="up" depart="71" departSpeed="5"/>
    <vehicle id="up_25" type="car" route="up" depart="73" departSpeed="5"/>
    <vehicle id="right_26" type="car" route="right" depart="74" departSpeed="5"/>
    <vehicle id="down_27" type="car" route="down" depart="76" departSpeed="5"/>
    <vehicle id="down_28" type="car" route="down" depart="78" departSpeed="5"/>
    <vehicle id="right_29" type="car" route="right" depart="83" departSpeed="5"/>
    <vehicle id="left_30" type="car" route="left" depart="84" departSpeed="5"/>
    <vehicle id="down_31" type="car" route="down" depart="84" departSpeed="5"/>
    <vehicle id="right_32" type="car" route="right" depart="85" departSpeed="5"/>
    <vehicle id="right_33" type="car" route="right" depart="86" departSpeed="5"/>
    <vehicle id="right_34" type="car" route="right" depart="87" departSpeed="5"/>
    <vehicle id="left_35" type="car" route="left" depart="87" departSpeed="5"/>
    <vehicle id="left_36" type="car" route="left" depart="95" departSpeed="5"/>
    <vehicle id="down_37" type="car" route="down" depart="97" departSpeed="5"/>
    <vehicle id="up_38" type="car" route="up" depart="99" departSpeed="5"/>
    <vehicle id="left_39" type="car" route="left" depart="101" departSpeed="5"/>
    <vehicle id="down_40" type="car" route="down" depart="103" departSpeed="5"/>
    <vehicle id="down_41" type="car" route="down" depart="105" departSpeed="5"/>
    <vehicle id="up_42" type="car" route="up" depart="107" departSpeed="5"/>
    <vehicle id="right_43" type="car" route="right" depart="108" departSpeed="5"/>
    <vehicle id="right_44" type="car" route="right" depart="109" departSpeed="5"/>
    <vehicle id="up_45" type="car" route="up" depart="113" departSpeed="5"/>
    <vehicle id="up_46" type="car" route="up" depart="123" departSpeed="5"/>
    <vehicle id="up_47" type="car" route="up" depart="126" departSpeed="5"/>
    <vehicle id="right_48" type="car" route="right" depart="128" departSpeed="5"/>
    <vehicle id="down_49" type="car" route="down" depart="130" departSpeed="5"/>
    <vehicle id="up_50" type="car" route="up" depart="130" departSpeed="5"/>
    <vehicle id="right_51" type="car" route="right" depart="134" departSpeed="5"/>
    <vehicle id="up_52" type="car" route="up" depart="134" departSpeed="5"/>
    <vehicle id="left_53" type="car" route="left" depart="137" departSpeed="5"/>
    <vehicle id="right_54" type="car" route="right" depart="141" departSpeed="5"/>
    <vehicle id="right_55" type="car" route="right" depart="143" departSpeed="5"/>
    <vehicle id="up_56" type="car" route="up" depart="143" departSpeed="5"/>
    <vehicle id="right_57" type="car" route="right" depart="158" departSpeed="5"/>
    <vehicle id="left_58" type="car" route="left" depart="158" departSpeed="5"/>
    <vehicle id="right_59" type="car" route="right" depart="160" departSpeed="5"/>
    <vehicle id="left_60" type="car" route="left" depart="165" departSpeed="5"/>
    <vehicle id="down_61" type="car" route="down" depart="167" departSpeed="5"/>
    <vehicle id="left_62" type="car" route="left" depart="168" departSpeed="5"/>
    <vehicle id="left_63" type="car" route="left" depart="172" departSpeed="5"/>
    <vehicle id="down_64" type="car" route="down" depart="174" departSpeed="5"/>
    <vehicle id="down_65" type="car" route="down" depart="175" departSpeed="5"/>
    <vehicle id="down_66" type="car" route="down" depart="176" departSpeed="5"/>
    <vehicle id="right_67" type="car" route="right" depart="184" departSpeed="5"/>
    <vehicle id="up_68" type="car" route="up" depart="184" departSpeed="5"/>
    <vehicle id="up_69" type="car" route="up" depart="186" departSpeed="5"/>
    <vehicle id="right_70" type="car" route="right" depart="192" departSpeed="5"/>
    <vehicle id="left_71" type="car" route="left" depart="192" departSpeed="5"/>
    <vehicle id="left_72" type="car" route="left" depart="194" departSpeed="5"/>
    <vehicle id="down_73" type="car" route="down" depart="197" departSpeed="5"/>
    <vehicle id="up_74" type="car" route="up" depart="197" departSpeed="5"/>
    <vehicle id="right_75" type="car" route="right" depart="198" departSpeed="5"/>
    <vehicle id="up_76" type="car" route="up" depart="202" departSpeed="5"/>
    <vehicle id="right_77" type="car" route="right" depart="203" departSpeed="5"/>
    <vehicle id="left_78" type="car" route="left" depart="203" departSpeed="5"/>
    <vehicle id="up_79" type="car" route="up" depart="210" departSpeed="5"/>
    <vehicle id="left_80" type="car" route="left" depart="213" departSpeed="5"/>
    <vehicle id="right_81" type="car" route="right" depart="214" departSpeed="5"/>
    <vehicle id="right_82" type="car" route="right" depart="215" departSpeed="5"/>
    <vehicle id="left_83" type="car" route="left" depart="216" departSpeed="5"/>
    <vehicle id="down_84" type="car" route="down" depart="216" departSpeed="5"/>
    <vehicle id="down_85" type="car" route="down" depart="219" departSpeed="5"/>
    <vehicle id="up_86" type="car" route="up" depart="219" departSpeed="5"/>
    <vehicle id="right_87" type="car" route="right" depart="222" departSpeed="5"/>
    <vehicle id="left_88" type="car" route="left" depart="224" departSpeed="5"/>
    <vehicle id="left_89" type="car" route="left" depart="227" departSpeed="5"/>
    <vehicle id="down_90" type="car" route="down" depart="230" departSpeed="5"/>
    <vehicle id="down_91" type="car" route="down" depart="234" departSpeed="5"/>
    <vehicle id="left_92" type="car" route="left" depart="236" departSpeed="5"/>
    <vehicle id="up_93" type="car" route="up" depart="238" departSpeed="5"/>
    <vehicle id="right_94" type="car" route="right" depart="239" departSpeed="5"/>
    <vehicle id="down_95" type="car" route="down" depart="241" departSpeed="5"/>
    <vehicle id="down_96" type="car" route="down" depart="242" departSpeed="5"/>
    <vehicle id="up_97" type="car" route="up" depart="246" departSpeed="5"/>
    <vehicle id="left_98" type="car" route="left" depart="250" departSpeed="5"/>
    <vehicle id="down_99" type="car" route="down" depart="251" departSpeed="5"/>
    <vehicle id="up_100" type="car" route="up" depart="251" departSpeed="5"/>
    <vehicle id="right_101" type="car" route="right" depart="254" departSpeed="5"/>
    <vehicle id="left_102" type="car" route="left" depart="254" departSpeed="5"/>
    <vehicle id="down_103" type="car" route="down" depart="254" departSpeed="5"/>
    <vehicle id="right_104" type="car" route="right" depart="262" departSpeed="5"/>
    <vehicle id="right_105" type="car" route="right" depart="263" departSpeed="5"/>
    <vehicle id="up_106" type="car" route="up" depart="264" departSpeed="5"/>
    <vehicle id="up_107" type="car" route="up" depart="271" departSpeed="5"/>
    <vehicle id="down_108" type="car" route="down" depart="275" departSpeed="5"/>
    <vehicle id="down_109" type="car" route="down" depart="276" departSpeed="5"/>
    <vehicle id="up_110" type="car" route="up" depart="276" departSpeed="5"/>
    <vehicle id="right_111" type="car" route="right" depart="277" departSpeed="5"/>
    <vehicle id="up_112" type="car" route="up" depart="279" departSpeed="5"/>
    <vehicle id="down_113" type="car" route="down" depart="281" departSpeed="5"/>
    <vehicle id="right_114" type="car" route="right" depart="290" departSpeed="5"/>
    <vehicle id="down_115" type="car" route="down" depart="292" departSpeed="5"/>
    <vehicle id="right_116" type="car" route="right" depart="296" departSpeed="5"/>
    <vehicle id="left_117" type="car" route="left" depart="298" departSpeed="5"/>
    <vehicle id="left_118" type="car" route="left" depart="299" departSpeed="5"/>
    <vehicle id="left_119" type="car" route="left" depart="303" departSpeed="5"/>
    <vehicle id="down_120" type="car" route="down" depart="305" departSpeed="5"/>
    <vehicle id="left_121" type="car" route="left" depart="308" departSpeed="5"/>
    <vehicle id="up_122" type="car" route="up" depart="309" departSpeed="5"/>
    <vehicle id="right_123" type="car" route="right" depart="311" departSpeed="5"/>
    <vehicle id="up_124" type="car" route="up" depart="311" departSpeed="5"/>
    <vehicle id="left_125" type="car" route="left" depart="312" departSpeed="5"/>
    <vehicle id="down_126" type="car" route="down" depart="312" departSpeed="5"/>
    <vehicle id="up_127" type="car" route="up" depart="313" departSpeed="5"/>
    <vehicle id="right_128" type="car" route="right" depart="316" departSpeed="5"/>
    <vehicle id="up_129" type="car" route="up" depart="316" departSpeed="5"/>
    <vehicle id="right_130" type="car" route="right" depart="318" departSpeed="5"/>
    <vehicle id="left_131" type="car" route="left" depart="319" departSpeed="5"/>
    <vehicle id="left_132" type="car" route="left" depart="322" departSpeed="5"/>
    <vehicle id="up_133" type="car" route="up" depart="327" departSpeed="5"/>
    <vehicle id="left_134" type="car" route="left" depart="332" departSpeed="5"/>
    <vehicle id="right_135" type="car" route="right" depart="333" departSpeed="5"/>
    <vehicle id="down_136" type="car" route="down" depart="335" departSpeed="5"/>
    <vehicle id="left_137" type="car" route="left" depart="337" departSpeed="5"/>
    <vehicle id="up_138" type="car" route="up" depart="337" departSpeed="5"/>
    <vehicle id="up_139" type="car" route="up" depart="339" departSpeed="5"/>
    <vehicle id="right_140" type="car" route="right" depart="343" departSpeed="5"/>
    <vehicle id="up_141" type="car" route="up" depart="344" departSpeed="5"/>
    <vehicle id="down_142" type="car" route="down" depart="351" departSpeed="5"/>
    <vehicle id="up_143" type="car" route="up" depart="356" departSpeed="5"/>
    <vehicle id="left_144" type="car" route="left" depart="359" departSpeed="5"/>
    <vehicle id="left_145" type="car" route="left" depart="360" departSpeed="5"/>
    <vehicle id="right_146" type="car" route="right" depart="361" departSpeed="5"/>
    <vehicle id="down_147" type="car" route="down" depart="361" departSpeed="5"/>
    <vehicle id="down_148" type="car" route="down" depart="363" departSpeed="5"/>
    <vehicle id="up_149" type="car" route="up" depart="363" departSpeed="5"/>
    <vehicle id="down_150" type="car" route="down" depart="366" departSpeed="5"/>
    <vehicle id="right_151" type="car" route="right" depart="372" departSpeed="5"/>
    <vehicle id="left_152" type="car" route="left" depart="374" departSpeed="5"/>
    <vehicle id="down_153" type="car" route="down" depart="374" departSpeed="5"/>
    <vehicle id="up_154" type="car" route="up" depart="374" departSpeed="5"/>
    <vehicle id="up_155" type="car" route="up" depart="378" departSpeed="5"/>
    <vehicle id="left_156" type="car" route="left" depart="379" departSpeed="5"/>
    <vehicle id="left_157" type="car" route="left" depart="386" departSpeed="5"/>
    <vehicle id="down_158" type="car" route="down" depart="387" departSpeed="5"/>
    <vehicle id="up_159" type="car" route="up" depart="388" departSpeed="5"/>
    <vehicle id="down_160" type="car" route="down" depart="389" departSpeed="5"/>
    <vehicle id="down_161" type="car" route="down" depart="390" departSpeed="5"/>
    <vehicle id="left_162" type="car" route="left" depart="398" departSpeed="5"/>
    <vehicle id="down_163" type="car" route="down" depart="398" departSpeed="5"/>
    <vehicle id="down_164" type="car" route="down" depart="399" departSpeed="5"/>
    <vehicle id="left_165" type="car" route="left" depart="404" departSpeed="5"/>
    <vehicle id="left_166" type="car" route="left" depart="406" departSpeed="5"/>
    <vehicle id="left_167" type="car" route="left" depart="407" departSpeed="5"/>
    <vehicle id="up_168" type="car" route="up" depart="408" departSpeed="5"/>
    <vehicle id="right_169" type="car" route="right" depart="409" departSpeed="5"/>
    <vehicle id="down_170" type="car" route="down" depart="410" departSpeed="5"/>
    <vehicle id="left_171" type="car" route="left" depart="411" departSpeed="5"/>
    <vehicle id="right_172" type="car" route="right" depart="413" departSpeed="5"/>
    <vehicle id="down_173" type="car" route="down" depart="419" departSpeed="5"/>
    <vehicle id="left_174" type="car" route="left" depart="425" departSpeed="5"/>
    <vehicle id="down_175" type="car" route="down" depart="426" departSpeed="5"/>
    <vehicle id="left_176" type="car" route="left" depart="429" departSpeed="5"/>
    <vehicle id="left_177" type="car" route="left" depart="430" departSpeed="5"/>
    <vehicle id="down_178" type="car" route="down" depart="434" departSpeed="5"/>
    <vehicle id="down_179" type="car" route="down" depart="437" departSpeed="5"/>
    <vehicle id="right_180" type="car" route="right" depart="440" departSpeed="5"/>
    <vehicle id="right_181" type="car" route="right" depart="443" departSpeed="5"/>
    <vehicle id="left_182" type="car" route="left" depart="444" departSpeed="5"/>
    <vehicle id="up_183" type="car" route="up" depart="444" departSpeed="5"/>
    <vehicle id="right_184" type="car" route="right" depart="446" departSpeed="5"/>
    <vehicle id="right_185" type="car" route="right" depart="450" departSpeed="5"/>
    <vehicle id="right_186" type="car" route="right" depart="455" departSpeed="5"/>
    <vehicle id="left_187" type="car" route="left" depart="456" departSpeed="5"/>
    <vehicle id="left_188" type="car" route="left" depart="457" departSpeed="5"/>
    <vehicle id="down_189" type="car" route="down" depart="457" departSpeed="5"/>
    <vehicle id="down_190" type="car" route="down" depart="459" departSpeed="5"/>
    <vehicle id="up_191" type="car" route="up" depart="460" departSpeed="5"/>
    <vehicle id="right_192" type="car" route="right" depart="462" departSpeed="5"/>
    <vehicle id="right_193" type="car" route="right" depart="464" departSpeed="5"/>
    <vehicle id="up_194" type="car" route="up" depart="466" departSpeed="5"/>
    <vehicle id="right_195" type="car" route="right" depart="469" departSpeed="5"/>
    <vehicle id="down_196" type="car" route="down" depart="470" departSpeed="5"/>
    <vehicle id="up_197" type="car" route="up" depart="470" departSpeed="5"/>
    <vehicle id="right_198" type="car" route="right" depart="473" departSpeed="5"/>
    <vehicle id="left_199" type="car" route="left" depart="475" departSpeed="5"/>
    <vehicle id="up_200" type="car" route="up" depart="475" departSpeed="5"/>
    <vehicle id="right_201" type="car" route="right" depart="476" departSpeed="5"/>
    <vehicle id="left_202" type="car" route="left" depart="481" departSpeed="5"/>
    <vehicle id="down_203" type="car" route="down" depart="485" departSpeed="5"/>
    <vehicle id="up_204" type="car" route="up" depart="485" departSpeed="5"/>
    <vehicle id="right_205" type="car" route="right" depart="492" departSpeed="5"/>
    <vehicle id="up_206" type="car" route="up" depart="494" departSpeed="5"/>
    <vehicle id="down_207" type="car" route="down" depart="505" departSpeed="5"/>
    <vehicle id="up_208" type="car" route="up" depart="508" departSpeed="5"/>
    <vehicle id="down_209" type="car" route="down" depart="510" departSpeed="5"/>
    <vehicle id="left_210" type="car" route="left" depart="511" departSpeed="5"/>
    <vehicle id="left_211" type="car" route="left" depart="520" departSpeed="5"/>
    <vehicle id="right_212" type="car" route="right" depart="522" departSpeed="5"/>
    <vehicle id="right_213" type="car" route="right" depart="525" departSpeed="5"/>
    <vehicle id="up_214" type="car" route="up" depart="536" departSpeed="5"/>
    <vehicle id="up_215" type="car" route="up" depart="537" departSpeed="5"/>
    <vehicle id="right_216" type="car" route="right" depart="540" departSpeed="5"/>
    <vehicle id="up_217" type="car" route="up" depart="544" departSpeed="5"/>
    <vehicle id="right_218" type="car" route="right" depart="547" departSpeed="5"/>
    <vehicle id="right_219" type="car" route="right" depart="548" departSpeed="5"/>
    <vehicle id="right_220" type="car" route="right" depart="554" departSpeed="5"/>
    <vehicle id="right_221" type="car" route="right" depart="555" departSpeed="5"/>
    <vehicle id="right_222" type="car" route="right" depart="559" departSpeed="5"/>
    <vehicle id="right_223" type="car" route="right" depart="560" departSpeed="5"/>
    <vehicle id="down_224" type="car" route="down" depart="560" departSpeed="5"/>
    <vehicle id="right_225" type="car" route="right" depart="565" departSpeed="5"/>
    <vehicle id="right_226" type="car" route="right" depart="567" departSpeed="5"/>
    <vehicle id="up_227" type="car" route="up" depart="567" departSpeed="5"/>
    <vehicle id="up_228" type="car" route="up" depart="569" departSpeed="5"/>
    <vehicle id="left_229" type="car" route="left" depart="570" departSpeed="5"/>
    <vehicle id="left_230" type="car" route="left" depart="577" departSpeed="5"/>
    <vehicle id="down_231" type="car" route="down" depart="578" departSpeed="5"/>
    <vehicle id="up_232" type="car" route="up" depart="579" departSpeed="5"/>
    <vehicle id="right_233" type="car" route="right" depart="585" departSpeed="5"/>
    <vehicle id="right_234" type="car" route="right" depart="589" departSpeed="5"/>
    <vehicle id="right_235" type="car" route="right" depart="596" departSpeed="5"/>
    <vehicle id="left_236" type="car" route="left" depart="602" departSpeed="5"/>
    <vehicle id="up_237" type="car" route="up" depart="607" departSpeed="5"/>
    <vehicle id="down_238" type="car" route="down" depart="616" departSpeed="5"/>
    <vehicle id="right_239" type="car" route="right" depart="619" departSpeed="5"/>
    <vehicle id="up_240" type="car" route="up" depart="620" departSpeed="5"/>
    <vehicle id="up_241" type="car" route="up" depart="628" departSpeed="5"/>
    <vehicle id="up_242" type="car" route="up" depart="629" departSpeed="5"/>
    <vehicle id="up_243" type="car" route="up" depart="637" departSpeed="5"/>
    <vehicle id="right_244" type="car" route="right" depart="638" departSpeed="5"/>
    <vehicle id="down_245" type="car" route="down" depart="640" departSpeed="5"/>
    <vehicle id="left_246" type="car" route="left" depart="641" departSpeed="5"/>
    <vehicle id="up_247" type="car" route="up" depart="641" departSpeed="5"/>
    <vehicle id="left_248" type="car" route="left" depart="642" departSpeed="5"/>
    <vehicle id="left_249" type="car" route="left" depart="646" departSpeed="5"/>
    <vehicle id="right_250" type="car" route="right" depart="647" departSpeed="5"/>
    <vehicle id="left_251" type="car" route="left" depart="647" departSpeed="5"/>
    <vehicle id="right_252" type="car" route="right" depart="651" departSpeed="5"/>
    <vehicle id="right_253" type="car" route="right" depart="653" departSpeed="5"/>
    <vehicle id="left_254" type="car" route="left" depart="654" departSpeed="5"/>
    <vehicle id="down_255" type="car" route="down" depart="655" departSpeed="5"/>
    <vehicle id="left_256" type="car" route="left" depart="657" departSpeed="5"/>
    <vehicle id="up_257" type="car" route="up" depart="659" departSpeed="5"/>
    <vehicle id="left_258" type="car" route="left" depart="660" departSpeed="5"/>
    <vehicle id="up_259" type="car" route="up" depart="661" departSpeed="5"/>
    <vehicle id="right_260" type="car" route="right" depart="663" departSpeed="5"/>
    <vehicle id="down_261" type="car" route="down" depart="663" departSpeed="5"/>
    <vehicle id="right_262" type="car" route="right" depart="666" departSpeed="5"/>
    <vehicle id="right_263" type="car" route="right" depart="671" departSpeed="5"/>
    <vehicle id="left_264" type="car" route="left" depart="671" departSpeed="5"/>
    <vehicle id="up_265" type="car" route="up" depart="671" departSpeed="5"/>
    <vehicle id="up_266" type="car" route="up" depart="674" departSpeed="5"/>
    <vehicle id="down_267" type="car" route="down" depart="675" departSpeed="5"/>
    <vehicle id="right_268" type="car" route="right" depart="676" departSpeed="5"/>
    <vehicle id="down_269" type="car" route="down" depart="678" departSpeed="5"/>
    <vehicle id="left_270" type="car" route="left" depart="680" departSpeed="5"/>
    <vehicle id="right_271" type="car" route="right" depart="683" departSpeed="5"/>
    <vehicle id="up_272" type="car" route="up" depart="685" departSpeed="5"/>
    <vehicle id="down_273" type="car" route="down" depart="686" departSpeed="5"/>
    <vehicle id="up_274" type="car" route="up" depart="688" departSpeed="5"/>
    <vehicle id="down_275" type="car" route="down" depart="691" departSpeed="5"/>
    <vehicle id="up_276" type="car" route="up" depart="696" departSpeed="5"/>
    <vehicle id="down_277" type="car" route="down" depart="698" departSpeed="5"/>
    <vehicle id="up_278" type="car" route="up" depart="698" departSpeed="5"/>
    <vehicle id="down_279" type="car" route="down" depart="699" departSpeed="5"/>
    <vehicle id="right_280" type="car" route="right" depart="701" departSpeed="5"/>
    <vehicle id="down_281" type="car" route="down" depart="701" departSpeed="5"/>
    <vehicle id="up_282" type="car" route="up" depart="701" departSpeed="5"/>
    <vehicle id="right_283" type="car" route="right" depart="704" departSpeed="5"/>
    <vehicle id="left_284" type="car" route="left" depart="705" departSpeed="5"/>
    <vehicle id="up_285" type="car" route="up" depart="706" departSpeed="5"/>
    <vehicle id="right_286" type="car" route="right" depart="707" departSpeed="5"/>
    <vehicle id="down_287" type="car" route="down" depart="709" departSpeed="5"/>
    <vehicle id="up_288" type="car" route="up" depart="711" departSpeed="5"/>
    <vehicle id="down_289" type="car" route="down" depart="713" departSpeed="5"/>
    <vehicle id="left_290" type="car" route="left" depart="716" departSpeed="5"/>
    <vehicle id="down_291" type="car" route="down" depart="716" departSpeed="5"/>
    <vehicle id="left_292" type="car" route="left" depart="719" departSpeed="5"/>
    <vehicle id="up_293" type="car" route="up" depart="726" departSpeed="5"/>
    <vehicle id="right_294" type="car" route="right" depart="728" departSpeed="5"/>
    <vehicle id="up_295" type="car" route="up" depart="730" departSpeed="5"/>
    <vehicle id="left_296" type="car" route="left" depart="731" departSpeed="5"/>
    <vehicle id="down_297" type="car" route="down" depart="732" departSpeed="5"/>
    <vehicle id="left_298" type="car" route="left" depart="735" departSpeed="5"/>
    <vehicle id="right_299" type="car" route="right" depart="736" departSpeed="5"/>
    <vehicle id="right_300" type="car" route="right" depart="737" departSpeed="5"/>
    <vehicle id="right_301" type="car" route="right" depart="739" departSpeed="5"/>
    <vehicle id="down_302" type="car" route="down" depart="739" departSpeed="5"/>
    <vehicle id="right_303" type="car" route="right" depart="742" departSpeed="5"/>
    <vehicle id="right_304" type="car" route="right" depart="750" departSpeed="5"/>
    <vehicle id="down_305" type="car" route="down" depart="750" departSpeed="5"/>
    <vehicle id="up_306" type="car" route="up" depart="752" departSpeed="5"/>
    <vehicle id="up_307" type="car" route="up" depart="753" departSpeed="5"/>
    <vehicle id="left_308" type="car" route="left" depart="757" departSpeed="5"/>
    <vehicle id="down_309" type="car" route="down" depart="758" departSpeed="5"/>
    <vehicle id="left_310" type="car" route="left" depart="759" departSpeed="5"/>
    <vehicle id="up_311" type="car" route="up" depart="760" departSpeed="5"/>
    <vehicle id="left_312" type="car" route="left" depart="768" departSpeed="5"/>
    <vehicle id="down_313" type="car" route="down" depart="770" departSpeed="5"/>
    <vehicle id="up_314" type="car" route="up" depart="774" departSpeed="5"/>
    <vehicle id="down_315" type="car" route="down" depart="775" departSpeed="5"/>
    <vehicle id="left_316" type="car" route="left" depart="785" departSpeed="5"/>
    <vehicle id="up_317" type="car" route="up" depart="787" departSpeed="5"/>
    <vehicle id="right_318" type="car" route="right" depart="790" departSpeed="5"/>
    <vehicle id="right_319" type="car" route="right" depart="794" departSpeed="5"/>
    <vehicle id="up_320" type="car" route="up" depart="794" departSpeed="5"/>
    <vehicle id="left_321" type="car" route="left" depart="798" departSpeed="5"/>
    <vehicle id="right_322" type="car" route="right" depart="799" departSpeed="5"/>
    <vehicle id="left_323" type="car" route="left" depart="799" departSpeed="5"/>
    <vehicle id="up_324" type="car" route="up" depart="800" departSpeed="5"/>
    <vehicle id="down_325" type="car" route="down" depart="807" departSpeed="5"/>
    <vehicle id="down_326" type="car" route="down" depart="810" departSpeed="5"/>
    <vehicle id="up_327" type="car" route="up" depart="813" departSpeed="5"/>
    <vehicle id="left_328" type="car" route="left" depart="814" departSpeed="5"/>
    <vehicle id="down_329" type="car" route="down" depart="817" departSpeed="5"/>
    <vehicle id="up_330" type="car" route="up" depart="818" departSpeed="5"/>
    <vehicle id="down_331" type="car" route="down" depart="822" departSpeed="5"/>
    <vehicle id="right_332" type="car" route="right" depart="826" departSpeed="5"/>
    <vehicle id="down_333" type="car" route="down" depart="828" departSpeed="5"/>
    <vehicle id="up_334" type="car" route="up" depart="832" departSpeed="5"/>
    <vehicle id="left_335" type="car" route="left" depart="835" departSpeed="5"/>
    <vehicle id="left_336" type="car" route="left" depart="837" departSpeed="5"/>
    <vehicle id="up_337" type="car" route="up" depart="838" departSpeed="5"/>
    <vehicle id="left_338" type="car" route="left" depart="840" departSpeed="5"/>
    <vehicle id="left_339" type="car" route="left" depart="844" departSpeed="5"/>
    <vehicle id="up_340" type="car" route="up" depart="854" departSpeed="5"/>
    <vehicle id="right_341" type="car" route="right" depart="856" departSpeed="5"/>
    <vehicle id="left_342" type="car" route="left" depart="857" departSpeed="5"/>
    <vehicle id="up_343" type="car" route="up" depart="858" departSpeed="5"/>
    <vehicle id="down_344" type="car" route="down" depart="865" departSpeed="5"/>
    <vehicle id="up_345" type="car" route="up" depart="866" departSpeed="5"/>
    <vehicle id="right_346" type="car" route="right" depart="867" departSpeed="5"/>
    <vehicle id="right_347" type="car" route="right" depart="874" departSpeed="5"/>
    <vehicle id="down_348" type="car" route="down" depart="880" departSpeed="5"/>
    <vehicle id="down_349" type="car" route="down" depart="882" departSpeed="5"/>
    <vehicle id="up_350" type="car" route="up" depart="886" departSpeed="5"/>
    <vehicle id="down_351" type="car" route="down" depart="888" departSpeed="5"/>
    <vehicle id="down_352" type="car" route="down" depart="891" departSpeed="5"/>
    <vehicle id="down_353" type="car" route="down" depart="893" departSpeed="5"/>
    <vehicle id="right_354" type="car" route="right" depart="894" departSpeed="5"/>
    <vehicle id="left_355" type="car" route="left" depart="894" departSpeed="5"/>
    <vehicle id="right_356" type="car" route="right" depart="896" departSpeed="5"/>
    <vehicle id="left_357" type="car" route="left" depart="896" departSpeed="5"/>
    <vehicle id="up_358" type="car" route="up" depart="896" departSpeed="5"/>
    <vehicle id="down_359" type="car" route="down" depart="898" departSpeed="5"/>
    <vehicle id="left_360" type="car" route="left" depart="900" departSpeed="5"/>
    <vehicle id="left_361" type="car" route="left" depart="902" departSpeed="5"/>
    <vehicle id="down_362" type="car" route="down" depart="903" departSpeed="5"/>
    <vehicle id="up_363" type="car" route="up" depart="904" departSpeed="5"/>
    <vehicle id="down_364" type="car" route="down" depart="905" departSpeed="5"/>