<routes>
            <vType id="car" accel="1.0" decel="4.5" sigma="0.7" length="5" minGap="3" maxSpeed="15" guiShape="passenger"/>

            <route id="right" edges="1i 2o" />
            <route id="left" edges="2i 1o" />
            <route id="down" edges="4i 3o" />
            <route id="up" edges="3i 4o" />
    <vehicle id="right_0" type="car" route="right" depart="2" departSpeed="5"/>
    <vehicle id="left_1" type="car" route="left" depart="2" departSpeed="5"/>
    <vehicle id="down_2" type="car" route="down" depart="2" departSpeed="5"/>
    <vehicle id="left_3" type="car" route="left" depart="3" departSpeed="5"/>
    <vehicle id="up_4" type="car" route="up" depart="3" departSpeed="5"/>
    <vehicle id="up_5" type="car" route="up" depart="5" departSpeed="5"/>
    <vehicle id="right_6" type="car" route="right" depart="6" departSpeed="5"/>
    <vehicle id="left_7" type="car" route="left" depart="12" departSpeed="5"/>
    <vehicle id="left_8" type="car" route="left" depart="17" departSpeed="5"/>
    <vehicle id="up_9" type="car" route="up" depart="20" departSpeed="5"/>
    <vehicle id="down_10" type="car" route="down" depart="21" departSpeed="5"/>
    <vehicle id="up_11" type="car" route="up" depart="21" departSpeed="5"/>
    <vehicle id="right_12" type="car" route="right" depart="22" departSpeed="5"/>
    <vehicle id="left_13" type="car" route="left" depart="24" departSpeed="5"/>
    <vehicle id="down_14" type="car" route="down" depart="31" departSpeed="5"/>
    <vehicle id="left_15" type="car" route="left" depart="36" departSpeed="5"/>
    <vehicle id="left_16" type="car" route="left" depart="38" departSpeed="5"/>
    <vehicle id="right_17" type="car" route="right" depart="40" departSpeed="5"/>
    <vehicle id="up_18" type="car" route="up" depart="44" departSpeed="5"/>
    <vehicle id="down_19" type="car" route="down" depart="46" departSpeed="5"/>
    <vehicle id="down_20" type="car" route="down" depart="50" departSpeed="5"/>
    <vehicle id="right_21" type="car" route="right" depart="53" departSpeed="5"/>
    <vehicle id="left_22" type="car" route="left" depart="53" departSpeed="5"/>
    <vehicle id="right_23" type="car" route="right" depart="54" departSpeed="5"/>
    <vehicle id="down_24" type="car" route="down" depart="54" departSpeed="5"/>
    <vehicle id="right_25" type="car" route="right" depart="57" departSpeed="5"/>
    <vehicle id="up_26" type="car" route="up" depart="58" departSpeed="5"/>
    <vehicle id="left_27" type="car" route="left" depart="60" departSpeed="5"/>
    <vehicle id="up_28" type="car" route="up" depart="69" departSpeed="5"/>
    <vehicle id="down_29" type="car" route="down" depart="71" departSpeed="5"/>
    <vehicle id="left_30" type="car" route="left" depart="72" departSpeed="5"/>
    <vehicle id="down_31" type="car" route="down" depart="73" departSpeed="5"/>
    <vehicle id="left_32" type="car" route="left" depart="82" departSpeed="5"/>
    <vehicle id="up_33" type="car" route="up" depart="82" departSpeed="5"/>
    <vehicle id="left_34" type="car" route="left" depart="84" departSpeed="5"/>
    <vehicle id="left_35" type="car" route="left" depart="88" departSpeed="5"/>
    <vehicle id="right_36" type="car" route="right" depart="90" departSpeed="5"/>
    <vehicle id="down_37" type="car" route="down" depart="93" departSpeed="5"/>
    <vehicle id="left_38" type="car" route="left" depart="97" departSpeed="5"/>
    <vehicle id="left_39" type="car" route="left" depart="98" departSpeed="5"/>
    <vehicle id="right_40" type="car" route="right" depart="100" departSpeed="5"/>
    <vehicle id="down_41" type="car" route="down" depart="101" departSpeed="5"/>
    <vehicle id="down_42" type="car" route="down" depart="103" departSpeed="5"/>
    <vehicle id="up_43" type="car" route="up" depart="105" departSpeed="5"/>
    <vehicle id="down_44" type="car" route="down" depart="113" departSpeed="5"/>
    <vehicle id="left_45" type="car" route="left" depart="115" departSpeed="5"/>
    <vehicle id="up_46" type="car" route="up" depart="115" departSpeed="5"/>
    <vehicle id="right_47" type="car" route="right" depart="118" departSpeed="5"/>
    <vehicle id="right_48" type="car" route="right" depart="125" departSpeed="5"/>
    <vehicle id="left_49" type="car" route="left" depart="128" departSpeed="5"/>
    <vehicle id="right_50" type="car" route="right" depart="132" departSpeed="5"/>
    <vehicle id="down_51" type="car" route="down" depart="132" departSpeed="5"/>
    <vehicle id="up_52" type="car" route="up" depart="132" departSpeed="5"/>
    <vehicle id="left_53" type="car" route="left" depart="135" departSpeed="5"/>
    <vehicle id="right_54" type="car" route="right" depart="143" departSpeed="5"/>
    <vehicle id="down_55" type="car" route="down" depart="143" departSpeed="5"/>
    <vehicle id="down_56" type="car" route="down" depart="145" departSpeed="5"/>
    <vehicle id="left_57" type="car" route="left" depart="146" departSpeed="5"/>
    <vehicle id="left_58" type="car" route="left" depart="148" departSpeed="5"/>
    <vehicle id="down_59" type="car" route="down" depart="148" departSpeed="5"/>
    <vehicle id="left_60" type="car" route="left" depart="149" departSpeed="5"/>
    <vehicle id="left_61" type="car" route="left" depart="152" departSpeed="5"/>
    <vehicle id="right_62" type="car" route="right" depart="154" departSpeed="5"/>
    <vehicle id="up_63" type="car" route="up" depart="159" departSpeed="5"/>
    <vehicle id="right_64" type="car" route="right" depart="161" departSpeed="5"/>
    <vehicle id="down_65" type="car" route="down" depart="161" departSpeed="5"/>
    <vehicle id="up_66" type="car" route="up" depart="171" departSpeed="5"/>
    <vehicle id="left_67" type="car" route="left" depart="173" departSpeed="5"/>
    <vehicle id="down_68" type="car" route="down" depart="178" departSpeed="5"/>
    <vehicle id="right_69" type="car" route="right" depart="181" departSpeed="5"/>
    <vehicle id="up_70" type="car" route="up" depart="182" departSpeed="5"/>
    <vehicle id="left_71" type="car" route="left" depart="183" departSpeed="5"/>
    <vehicle id="up_72" type="car" route="up" depart="183" departSpeed="5"/>
    <vehicle id="right_73" type="car" route="right" depart="184" departSpeed="5"/>
    <vehicle id="right_74" type="car" route="right" depart="189" departSpeed="5"/>
    <vehicle id="left_75" type="car" route="left" depart="192" departSpeed="5"/>
    <vehicle id="up_76" type="car" route="up" depart="194" departSpeed="5"/>
    <vehicle id="right_77" type="car" route="right" depart="197" departSpeed="5"/>
    <vehicle id="down_78" type="car" route="down" depart="201" departSpeed="5"/>
    <vehicle id="down_79" type="car" route="down" depart="202" departSpeed="5"/>
    <vehicle id="left_80" type="car" route="left" depart="203" departSpeed="5"/>
    <vehicle id="left_81" type="car" route="left" depart="205" departSpeed="5"/>
    <vehicle id="up_82" type="car" route="up" depart="205" departSpeed="5"/>
    <vehicle id="up_83" type="car" route="up" depart="213" departSpeed="5"/>
    <vehicle id="right_84" type="car" route="right" depart="218" departSpeed="5"/>
    <vehicle id="left_85" type="car" route="left" depart="220" departSpeed="5"/>
    <vehicle id="down_86" type="car" route="down" depart="222" departSpeed="5"/>
    <vehicle id="right_87" type="car" route="right" depart="223" departSpeed="5"/>
    <vehicle id="right_88" type="car" route="right" depart="224" departSpeed="5"/>
    <vehicle id="up_89" type="car" route="up" depart="227" departSpeed="5"/>
    <vehicle id="down_90" type="car" route="down" depart="237" departSpeed="5"/>
    <vehicle id="right_91" type="car" route="right" depart="241" departSpeed="5"/>
    <vehicle id="up_92" type="car" route="up" depart="252" departSpeed="5"/>
    <vehicle id="up_93" type="car" route="up" depart="258" departSpeed="5"/>
    <vehicle id="left_94" type="car" route="left" depart="261" departSpeed="5"/>
    <vehicle id="right_95" type="car" route="right" depart="262" departSpeed="5"/>
    <vehicle id="up_96" type="car" route="up" depart="262" departSpeed="5"/>
    <vehicle id="up_97" type="car" route="up" depart="266" departSpeed="5"/>
    <vehicle id="down_98" type="car" route="down" depart="274" departSpeed="5"/>
    <vehicle id="down_99" type="car" route="down" depart="279" departSpeed="5"/>
    <vehicle id="up_100" type="car" route="up" depart="280" departSpeed="5"/>
    <vehicle id="right_101" type="car" route="right" depart="284" departSpeed="5"/>
    <vehicle id="left_102" type="car" route="left" depart="284" departSpeed="5"/>
    <vehicle id="down_103" type="car" route="down" depart="284" departSpeed="5"/>
    <vehicle id="down_104" type="car" route="down" depart="289" departSpeed="5"/>
    <vehicle id="right_105" type="car" route="right" depart="290" departSpeed="5"/>
    <vehicle id="left_106" type="car" route="left" depart="290" departSpeed="5"/>
    <vehicle id="down_107" type="car" route="down" depart="290" departSpeed="5"/>
    <vehicle id="left_108" type="car" route="left" depart="292" departSpeed="5"/>
    <vehicle id="left_109" type="car" route="left" depart="293" departSpeed="5"/>
    <vehicle id="down_110" type="car" route="down" depart="294" departSpeed="5"/>
    <vehicle id="up_111" type="car" route="up" depart="297" departSpeed="5"/>
    <vehicle id="up_112" type="car" route="up" depart="308" departSpeed="5"/>
    <vehicle id="left_113" type="car" route="left" depart="309" departSpeed="5"/>
    <vehicle id="up_114" type="car" route="up" depart="310" departSpeed="5"/>
    <vehicle id="down_115" type="car" route="down" depart="313" departSpeed="5"/>
    <vehicle id="down_116" type="car" route="down" depart="318" departSpeed="5"/>
    <vehicle id="left_117" type="car" route="left" depart="321" departSpeed="5"/>
    <vehicle id="right_118" type="car" route="right" depart="322" departSpeed="5"/>
    <vehicle id="down_119" type="car" route="down" depart="328" departSpeed="5"/>
    <vehicle id="left_120" type="car" route="left" depart="333" departSpeed="5"/>
    <vehicle id="right_121" type="car" route="right" depart="335" departSpeed="5"/>
    <vehicle id="right_122" type="car" route="right" depart="347" departSpeed="5"/>
    <vehicle id="left_123" type="car" route="left" depart="350" departSpeed="5"/>
    <vehicle id="right_124" type="car" route="right" depart="353" departSpeed="5"/>
    <vehicle id="down_125" type="car" route="down" depart="353" departSpeed="5"/>
    <vehicle id="left_126" type="car" route="left" depart="357" departSpeed="5"/>
    <vehicle id="down_127" type="car" route="down" depart="358" departSpeed="5"/>
    <vehicle id="down_128" type="car" route="down" depart="360" departSpeed="5"/>
    <vehicle id="right_129" type="car" route="right" depart="363" departSpeed="5"/>
    <vehicle id="down_130" type="car" route="down" depart="363" departSpeed="5"/>
    <vehicle id="left_131" type="car" route="left" depart="364" departSpeed="5"/>
    <vehicle id="left_132" type="car" route="left" depart="365" departSpeed="5"/>
    <vehicle id="down_133" type="car" route="down" depart="365" departSpeed="5"/>
    <vehicle id="right_134" type="car" route="right" depart="366" departSpeed="5"/>
    <vehicle id="right_135" type="car" route="right" depart="367" departSpeed="5"/>
    <vehicle id="left_136" type="car" route="left" depart="368" departSpeed="5"/>
    <vehicle id="right_137" type="car" route="right" depart="371" departSpeed="5"/>
    <vehicle id="left_138" type="car" route="left" depart="372" departSpeed="5"/>
    <vehicle id="down_139" type="car" route="down" depart="372" departSpeed="5"/>
    <vehicle id="right_140" type="car" route="right" depart="373" departSpeed="5"/>
    <vehicle id="down_141" type="car" route="down" depart="373" departSpeed="5"/>
    <vehicle id="up_142" type="car" route="up" depart="373" departSpeed="5"/>
    <vehicle id="up_143" type="car" route="up" depart="375" departSpeed="5"/>
    <vehicle id="right_144" type="car" route="right" depart="382" departSpeed="5"/>
    <vehicle id="up_145" type="car" route="up" depart="382" departSpeed="5"/>
    <vehicle id="up_146" type="car" route="up" depart="383" departSpeed="5"/>
    <vehicle id="left_147" type="car" route="left" depart="387" departSpeed="5"/>
    <vehicle id="left_148" type="car" route="left" depart="390" departSpeed="5"/>
    <vehicle id="down_149" type="car" route="down" depart="390" departSpeed="5"/>
    <vehicle id="right_150" type="car" route="right" depart="393" departSpeed="5"/>
    <vehicle id="down_151" type="car" route="down" depart="393" departSpeed="5"/>
    <vehicle id="up_152" type="car" route="up" depart="393" departSpeed="5"/>
    <vehicle id="left_153" type="car" route="left" depart="394" departSpeed="5"/>
    <vehicle id="down_154" type="car" route="down" depart="399" departSpeed="5"/>
    <vehicle id="left_155" type="car" route="left" depart="405" departSpeed="5"/>
    <vehicle id="right_156" type="car" route="right" depart="411" departSpeed="5"/>
    <vehicle id="down_157" type="car" route="down" depart="420" departSpeed="5"/>
    <vehicle id="up_158" type="car" route="up" depart="420" departSpeed="5"/>
    <vehicle id="right_159" type="car" route="right" depart="421" departSpeed="5"/>
    <vehicle id="down_160" type="car" route="down" depart="431" departSpeed="5"/>
    <vehicle id="up_161" type="car" route="up" depart="437" departSpeed="5"/>
    <vehicle id="left_162" type="car" route="left" depart="438" departSpeed="5"/>
    <vehicle id="up_163" type="car" route="up" depart="438" departSpeed="5"/>
    <vehicle id="down_164" type="car" route="down" depart="440" departSpeed="5"/>
    <vehicle id="left_165" type="car" route="left" depart="444" departSpeed="5"/>
    <vehicle id="down_166" type="car" route="down" depart="444" departSpeed="5"/>
    <vehicle id="down_167" type="car" route="down" depart="446" departSpeed="5"/>
    <vehicle id="up_168" type="car" route="up" depart="446" departSpeed="5"/>
    <vehicle id="left_169" type="car" route="left" depart="447" departSpeed="5"/>
    <vehicle id="down_170" type="car" route="down" depart="448" departSpeed="5"/>
    <vehicle id="right_171" type="car" route="right" depart="449" departSpeed="5"/>
    <vehicle id="down_172" type="car" route="down" depart="452" departSpeed="5"/>
    <vehicle id="up_173" type="car" route="up" depart="454" departSpeed="5"/>
    <vehicle id="left_174" type="car" route="left" depart="461" departSpeed="5"/>
    <vehicle id="up_175" type="car" route="up" depart="464" departSpeed="5"/>
    <vehicle id="left_176" type="car" route="left" depart="465" departSpeed="5"/>
    <vehicle id="down_177" type="car" route="down" depart="466" departSpeed="5"/>
    <vehicle id="left_178" type="car" route="left" depart="474" departSpeed="5"/>
    <vehicle id="down_179" type="car" route="down" depart="480" departSpeed="5"/>
    <vehicle id="down_180" type="car" route="down" depart="485" departSpeed="5"/>
    <vehicle id="up_181" type="car" route="up" depart="487" departSpeed="5"/>
    <vehicle id="right_182" type="car" route="right" depart="496" departSpeed="5"/>
    <vehicle id="up_183" type="car" route="up" depart="496" departSpeed="5"/>
    <vehicle id="up_184" type="car" route="up" depart="497" departSpeed="5"/>
    <vehicle id="left_185" type="car" route="left" depart="500" departSpeed="5"/>
    <vehicle id="right_186" type="car" route="right" depart="503" departSpeed="5"/>
    <vehicle id="down_187" type="car" route="down" depart="505" departSpeed="5"/>
    <vehicle id="down_188" type="car" route="down" depart="506" departSpeed="5"/>
    <vehicle id="up_189" type="car" route="up" depart="508" departSpeed="5"/>
    <vehicle id="right_190" type="car" route="right" depart="509" departSpeed="5"/>
    <vehicle id="right_191" type="car" route="right" depart="511" departSpeed="5"/>
    <vehicle id="left_192" type="car" route="left" depart="513" departSpeed="5"/>
    <vehicle id="right_193" type="car" route="right" depart="514" departSpeed="5"/>
    <vehicle id="right_194" type="car" route="right" depart="515" departSpeed="5"/>
    <vehicle id="left_195" type="car" route="left" depart="518" departSpeed="5"/>
    <vehicle id="up_196" type="car" route="up" depart="534" departSpeed="5"/>
    <vehicle id="up_197" type="car" route="up" depart="546" departSpeed="5"/>
    <vehicle id="left_198" type="car" route="left" depart="553" departSpeed="5"/>
    <vehicle id="left_199" type="car" route="left" depart="557" departSpeed="5"/>
    <vehicle id="left_200" type="car" route="left" depart="559" departSpeed="5"/>
    <vehicle id="up_201" type="car" route="up" depart="559" departSpeed="5"/>
    <vehicle id="down_202" type="car" route="down" depart="560" departSpeed="5"/>
    <vehicle id="left_203" type="car" route="left" depart="572" departSpeed="5"/>
    <vehicle id="down_204" type="car" route="down" depart="573" departSpeed="5"/>
    <vehicle id="right_205" type="car" route="right" depart="575" departSpeed="5"/>
    <vehicle id="down_206" type="car" route="down" depart="576" departSpeed="5"/>
    <vehicle id="right_207" type="car" route="right" depart="577" departSpeed="5"/>
    <vehicle id="down_208" type="car" route="down" depart="577" departSpeed="5"/>
    <vehicle id="down_209" type="car" route="down" depart="578" departSpeed="5"/>
    <vehicle id="up_210" type="car" route="up" depart="579" departSpeed="5"/>
    <vehicle id="left_211" type="car" route="left" depart="581" departSpeed="5"/>
    <vehicle id="left_212" type="car" route="left" depart="582" departSpeed="5"/>
    <vehicle id="right_213" type="car" route="right" depart="583" departSpeed="5"/>
    <vehicle id="right_214" type="car" route="right" depart="587" departSpeed="5"/>
    <vehicle id="left_215" type="car" route="left" depart="587" departSpeed="5"/>
    <vehicle id="left_216" type="car" route="left" depart="595" departSpeed="5"/>
    <vehicle id="right_217" type="car" route="right" depart="599" departSpeed="5"/>
    <vehicle id="down_218" type="car" route="down" depart="599" departSpeed="5"/>
    <vehicle id="right_219" type="car" route="right" depart="606" departSpeed="5"/>
    <vehicle id="right_220" type="car" route="right" depart="607" departSpeed="5"/>
    <vehicle id="up_221" type="car" route="up" depart="608" departSpeed="5"/>
    <vehicle id="left_222" type="car" route="left" depart="609" departSpeed="5"/>
    <vehicle id="down_223" type="car" route="down" depart="609" departSpeed="5"/>
    <vehicle id="down_224" type="car" route="down" depart="610" departSpeed="5"/>
    <vehicle id="down_225" type="car" route="down" depart="611" departSpeed="5"/>
    <vehicle id="right_226" type="car" route="right" depart="612" departSpeed="5"/>
    <vehicle id="right_227" type="car" route="right" depart="613" departSpeed="5"/>
    <vehicle id="right_228" type="car" route="right" depart="616" departSpeed="5"/>
    <vehicle id="down_229" type="car" route="down" depart="621" departSpeed="5"/>
    <vehicle id="left_230" type="car" route="left" depart="632" departSpeed="5"/>
    <vehicle id="right_231" type="car" route="right" depart="634" departSpeed="5"/>
    <vehicle id="down_232" type="car" route="down" depart="639" departSpeed="5"/>
    <vehicle id="right_233" type="car" route="right" depart="641" departSpeed="5"/>
    <vehicle id="left_234" type="car" route="left" depart="643" departSpeed="5"/>
    <vehicle id="left_235" type="car" route="left" depart="646" departSpeed="5"/>
    <vehicle id="up_236" type="car" route="up" depart="647" departSpeed="5"/>
    <vehicle id="left_237" type="car" route="left" depart="650" departSpeed="5"/>
    <vehicle id="left_238" type="car" route="left" depart="651" departSpeed="5"/>
    <vehicle id="up_239" type="car" route="up" depart="653" departSpeed="5"/>
    <vehicle id="right_240" type="car" route="right" depart="660" departSpeed="5"/>
    <vehicle id="down_241" type="car" route="down" depart="664" departSpeed="5"/>
    <vehicle id="up_242" type="car" route="up" depart="670" departSpeed="5"/>
    <vehicle id="right_243" type="car" route="right" depart="675" departSpeed="5"/>
    <vehicle id="down_244" type="car" route="down" depart="675" departSpeed="5"/>
    <vehicle id="down_245" type="car" route="down" depart="678" departSpeed="5"/>
    <vehicle id="left_246" type="car" route="left" depart="682" departSpeed="5"/>
    <vehicle id="up_247" type="car" route="up" depart="684" departSpeed="5"/>
    <vehicle id="down_248" type="car" route="down" depart="685" departSpeed="5"/>
    <vehicle id="down_249" type="car" route="down" depart="689" departSpeed="5"/>
    <vehicle id="left_250" type="car" route="left" depart="691" departSpeed="5"/>
    <vehicle id="right_251" type="car" route="right" depart="698" departSpeed="5"/>
    <vehicle id="left_252" type="car" route="left" depart="699" departSpeed="5"/>
    <vehicle id="left_253" type="car" route="left" depart="701" departSpeed="5"/>
    <vehicle id="down_254" type="car" route="down" depart="715" departSpeed="5"/>
    <vehicle id="right_255" type="car" route="right" depart="723" departSpeed="5"/>
    <vehicle id="right_256" type="car" route="right" depart="725" departSpeed="5"/>
    <vehicle id="down_257" type="car" route="down" depart="729" departSpeed="5"/>
    <vehicle id="left_258" type="car" route="left" depart="731" departSpeed="5"/>
    <vehicle id="down_259" type="car" route="down" depart="733" departSpeed="5"/>
    <vehicle id="right_260" type="car" route="right" depart="739" departSpeed="5"/>
    <vehicle id="up_261" type="car" route="up" depart="739" departSpeed="5"/>
    <vehicle id="up_262" type="car" route="up" depart="740" departSpeed="5"/>
    <vehicle id="down_263" type="car" route="down" depart="741" departSpeed="5"/>
    <vehicle id="down_264" type="car" route="down" depart="742" departSpeed="5"/>
    <vehicle id="left_265" type="car" route="left" depart="744" departSpeed="5"/>
    <vehicle id="left_266" type="car" route="left" depart="749" departSpeed="5"/>
    <vehicle id="left_267" type="car" route="left" depart="754" departSpeed="5"/>
    <vehicle id="right_268" type="car" route="right" depart="759" departSpeed="5"/>
    <vehicle id="left_269" type="car" route="left" depart="759" departSpeed="5"/>
    <vehicle id="down_270" type="car" route="down" depart="759" departSpeed="5"/>
    <vehicle id="up_271" type="car" route="up" depart="761" departSpeed="5"/>
    <vehicle id="down_272" type="car" route="down" depart="763" departSpeed="5"/>
    <vehicle id="right_273" type="car" route="right" depart="764" departSpeed="5"/>
    <vehicle id="left_274" type="car" route="left" depart="764" departSpeed="5"/>
    <vehicle id="up_275" type="car" route="up" depart="767" departSpeed="5"/>
    <vehicle id="left_276" type="car" route="left" depart="770" departSpeed="5"/>
    <vehicle id="up_277" type="car" route="up" depart="773" departSpeed="5"/>
    <vehicle id="left_278" type="car" route="left" depart="774" departSpeed="5"/>
    <vehicle id="right_279" type="car" route="right" depart="775" departSpeed="5"/>
    <vehicle id="left_280" type="car" route="left" depart="777" departSpeed="5"/>
    <vehicle id="up_281" type="car" route="up" depart="777" departSpeed="5"/>
    <vehicle id="down_282" type="car" route="down" depart="782" departSpeed="5"/>
    <vehicle id="up_283" type="car" route="up" depart="784" departSpeed="5"/>
    <vehicle id="left_284" type="car" route="left" depart="787" departSpeed="5"/>
    <vehicle id="left_285" type="car" route="left" depart="790" departSpeed="5"/>
    <vehicle id="down_286" type="car" route="down" depart="799" departSpeed="5"/>
    <vehicle id="down_287" type="car" route="down" depart="801" departSpeed="5"/>
    <vehicle id="up_288" type="car" route="up" depart="803" departSpeed="5"/>
    <vehicle id="down_289" type="car" route="down" depart="805" departSpeed="5"/>
    <vehicle id="down_290" type="car" route="down" depart="808" departSpeed="5"/>
    <vehicle id="up_291" type="car" route="up" depart="808" departSpeed="5"/>
    <vehicle id="up_292" type="car" route="up" depart="810" departSpeed="5"/>
    <vehicle id="down_293" type="car" route="down" depart="815" departSpeed="5"/>
    <vehicle id="left_294" type="car" route="left" depart="816" departSpeed="5"/>
    <vehicle id="down_295" type="car" route="down" depart="817" departSpeed="5"/>
    <vehicle id="left_296" type="car" route="left" depart="818" departSpeed="5"/>
    <vehicle id="left_297" type="car" route="left" depart="819" departSpeed="5"/>
    <vehicle id="up_298" type="car" route="up" depart="824" departSpeed="5"/>
    <vehicle id="left_299" type="car" route="left" depart="830" departSpeed="5"/>
    <vehicle id="left_300" type="car" route="left" depart="832" departSpeed="5"/>
    <vehicle id="up_301" type="car" route="up" depart="833" departSpeed="5"/>
    <vehicle id="right_302" type="car" route="right" depart="836" departSpeed="5"/>
    <vehicle id="left_303" type="car" route="left" depart="837" departSpeed="5"/>
    <vehicle id="left_304" type="car" route="left" depart="838" departSpeed="5"/>
    <vehicle id="left_305" type="car" route="left" depart="840" departSpeed="5"/>
    <vehicle id="down_306" type="car" route="down" depart="841" departSpeed="5"/>
    <vehicle id="up_307" type="car" route="up" depart="841" departSpeed="5"/>
    <vehicle id="up_308" type="car" route="up" depart="845" departSpeed="5"/>
    <vehicle id="down_309" type="car" route="down" depart="847" departSpeed="5"/>
    <vehicle id="left_310" type="car" route="left" depart="848" departSpeed="5"/>
    <vehicle id="left_311" type="car" route="left" depart="853" departSpeed="5"/>
    <vehicle id="right_312" type="car" route="right" depart="855" departSpeed="5"/>
    <vehicle id="left_313" type="car" route="left" depart="855" departSpeed="5"/>
    <vehicle id="left_314" type="car" route="left" depart="860" departSpeed="5"/>
    <vehicle id="up_315" type="car" route="up" depart="862" departSpeed="5"/>
    <vehicle id="left_316" type="car" route="left" depart="863" departSpeed="5"/>
    <vehicle id="up_317" type="car" route="up" depart="863" departSpeed="5"/>
    <vehicle id="right_318" type="car" route="right" depart="867" departSpeed="5"/>
    <vehicle id="left_319" type="car" route="left" depart="867" departSpeed="5"/>
    <vehicle id="down_320" type="car" route="down" depart="871" departSpeed="5"/>
    <vehicle id="right_321" type="car" route="right" depart="872" departSpeed="5"/>
    <vehicle id="up_322" type="car" route="up" depart="878" departSpeed="5"/>
    <vehicle id="down_323" type="car" route="down" depart="885" departSpeed="5"/>
    <vehicle id="up_324" type="car" route="up" depart="885" departSpeed="5"/>
    <vehicle id="right_325" type="car" route="right" depart="887" departSpeed="5"/>
    <vehicle id="right_326" type="car" route="right" depart="888" departSpeed="5"/>
    <vehicle id="down_327" type="car" route="down" depart="889" departSpeed="5"/>
    <vehicle id="up_328" type="car" route="up" depart="889" departSpeed="5"/>
    <vehicle id="left_329" type="car" route="left" depart="890" departSpeed="5"/>
    <vehicle id="up_330" type="car" route="up" depart="890" departSpeed="5"/>
    <vehicle id="left_331" type="car" route="left" depart="894" departSpeed="5"/>
    <vehicle id="right_332" type="car" route="right" depart="896" departSpeed="5"/>
    <vehicle id="up_333" type="car" route="up" depart="896" departSpeed="5"/>
    <vehicle id="right_334" type="car" route="right" depart="897" departSpeed="5"/>
    <vehicle id="down_335" type="car" route="down" depart="897" departSpeed="5"/>
    <vehicle id="up_336" type="car" route="up" depart="898" departSpeed="5"/>
    <vehicle id="right_337" type="car" route="right" depart="899" departSpeed="5"/>
    <vehicle id="left_338" type="car" route="left" depart="899" departSpeed="5"/>
    <vehicle id="up_339" type="car" route="up" depart="899" departSpeed="5"/>
    <vehicle id="left_340" type="car" route="left" depart="900" departSpeed="5"/>
    <vehicle id="right_341" type="car" route="right" depart="903" departSpeed="5"/>
    <vehicle id="left_342" type="car" route="left" depart="906" departSpeed="5"/>
    <vehicle id="down_343" type="car" route="down" depart="907" departSpeed="5"/>
    <vehicle id="right_344" type="car" route="right" depart="913" departSpeed="5"/>
    <vehicle id="right_345" type="car" route="right" depart="921" departSpeed="5"/>
    <vehicle id="up_346" type="car" route="up" depart="924" departSpeed="5"/>
    <vehicle id="up_347" type="car" route="up" depart="925" departSpeed="5"/>
    <vehicle id="down_348" type="car" route="down" depart="927" departSpeed="5"/>
    <vehicle id="up_349" type="car" route="up" depart="929" departSpeed="5"/>
    <vehicle id="left_350" type="car" route="left" depart="930" departSpeed="5"/>
    <vehicle id="left_351" type="car" route="left" depart="933" departSpeed="5"/>
    <vehicle id="up_352" type="car" route="up" depart="934" departSpeed="5"/>
    <vehicle id="right_353" type="car" route="right" depart="935" departSpeed="5"/>
    <vehicle id="up_354" type="car" route="up" depart="937" departSpeed="5"/>
    <vehicle id="left_355" type="car" route="left" depart="939" departSpeed="5"/>
    <vehicle id="left_356" type="car" route="left" depart="944" departSpeed="5"/>
    <vehicle id="left_357" type="car" route="left" depart="945" departSpeed="5"/>
    <vehicle id="up_358" type="car" route="up" depart="946" departSpeed="5"/>
    <vehicle id="down_359" type="car" route="down" depart="950" departSpeed="5"/>
    <vehicle id="down_360" type="car" route="down" depart="960" departSpeed="5"/>
    <vehicle id="left_361" type="car" route="left" depart="961" departSpeed="5"/>
    <vehicle id="up_362" type="car" route="up" depart="964" departSpeed="5"/>
    <vehicle id="right_363" type="car" route="right" depart="965" departSpeed="5"/>
    <vehicle id="left_364" type="car" route="left" depart="965" departSpeed="5"/>