<routes>
            <vType id="car" accel="1.0" decel="4.5" sigma="0.7" length="5" minGap="3" maxSpeed="15" guiShape="passenger"/>

            <route id="right" edges="1i 2o" />
            <route id="left" edges="2i 1o" />
            <route id="down" edges="4i 3o" />
            <route id="up" edges="3i 4o" />
    <vehicle id="right_0" type="car" route="right" depart="1" departSpeed="5"/>
    <vehicle id="up_1" type="car" route="up" depart="1" departSpeed="5"/>
    <vehicle id="left_2" type="car" route="left" depart="3" departSpeed="5"/>
    <vehicle id="up_3" type="car" route="up" depart="3" departSpeed="5"/>
    <vehicle id="right_4" type="car" route="right" depart="11" departSpeed="5"/>
    <vehicle id="down_5" type="car" route="down" depart="13" departSpeed="5"/>
    <vehicle id="down_6" type="car" route="down" depart="14" departSpeed="5"/>
    <vehicle id="down_7" type="car" route="down" depart="15" departSpeed="5"/>
    <vehicle id="up_8" type="car" route="up" depart="15" departSpeed="5"/>
    <vehicle id="up_9" type="car" route="up" depart="16" departSpeed="5"/>
    <vehicle id="down_10" type="car" route="down" depart="18" departSpeed="5"/>
    <vehicle id="right_11" type="car" route="right" depart="19" departSpeed="5"/>
    <vehicle id="left_12" type="car" route="left" depart="19" departSpeed="5"/>
    <vehicle id="down_13" type="car" route="down" depart="19" departSpeed="5"/>
    <vehicle id="down_14" type="car" route="down" depart="22" departSpeed="5"/>
    <vehicle id="up_15" type="car" route="up" depart="23" departSpeed="5"/>
    <vehicle id="left_16" type="car" route="left" depart="25" departSpeed="5"/>
    <vehicle id="left_17" type="car" route="left" depart="27" departSpeed="5"/>
    <vehicle id="down_18" type="car" route="down" depart="27" departSpeed="5"/>
    <vehicle id="up_19" type="car" route="up" depart="27" departSpeed="5"/>
    <vehicle id="left_20" type="car" route="left" depart="30" departSpeed="5"/>
    <vehicle id="left_21" type="car" route="left" depart="40" departSpeed="5"/>
    <vehicle id="up_22" type="car" route="up" depart="40" departSpeed="5"/>
    <vehicle id="left_23" type="car" route="left" depart="53" departSpeed="5"/>
    <vehicle id="down_24" type="car" route="down" depart="61" departSpeed="5"/>
    <vehicle id="up_25" type="car" route="up" depart="64" departSpeed="5"/>
    <vehicle id="right_26" type="car" route="right" depart="69" departSpeed="5"/>
    <vehicle id="down_27" type="car" route="down" depart="69" departSpeed="5"/>
    <vehicle id="right_28" type="car" route="right" depart="70" departSpeed="5"/>
    <vehicle id="left_29" type="car" route="left" depart="76" departSpeed="5"/>
    <vehicle id="down_30" type="car" route="down" depart="76" departSpeed="5"/>
    <vehicle id="up_31" type="car" route="up" depart="78" departSpeed="5"/>
    <vehicle id="right_32" type="car" route="right" depart="80" departSpeed="5"/>
    <vehicle id="right_33" type="car" route="right" depart="81" departSpeed="5"/>
    <vehicle id="down_34" type="car" route="down" depart="81" departSpeed="5"/>
    <vehicle id="up_35" type="car" route="up" depart="82" departSpeed="5"/>
    <vehicle id="right_36" type="car" route="right" depart="83" departSpeed="5"/>
    <vehicle id="right_37" type="car" route="right" depart="84" departSpeed="5"/>
    <vehicle id="down_38" type="car" route="down" depart="86" departSpeed="5"/>
    <vehicle id="right_39" type="car" route="right" depart="89" departSpeed="5"/>
    <vehicle id="left_40" type="car" route="left" depart="92" departSpeed="5"/>
    <vehicle id="down_41" type="car" route="down" depart="93" departSpeed="5"/>
    <vehicle id="up_42" type="car" route="up" depart="93" departSpeed="5"/>
    <vehicle id="right_43" type="car" route="right" depart="96" departSpeed="5"/>
    <vehicle id="left_44" type="car" route="left" depart="96" departSpeed="5"/>
    <vehicle id="left_45" type="car" route="left" depart="98" departSpeed="5"/>
    <vehicle id="down_46" type="car" route="down" depart="98" departSpeed="5"/>
    <vehicle id="up_47" type="car" route="up" depart="102" departSpeed="5"/>
    <vehicle id="left_48" type="car" route="left" depart="109" departSpeed="5"/>
    <vehicle id="right_49" type="car" route="right" depart="111" departSpeed="5"/>
    <vehicle id="right_50" type="car" route="right" depart="112" departSpeed="5"/>
    <vehicle id="left_51" type="car" route="left" depart="113" departSpeed="5"/>
    <vehicle id="right_52" type="car" route="right" depart="116" departSpeed="5"/>
    <vehicle id="up_53" type="car" route="up" depart="125" departSpeed="5"/>
    <vehicle id="down_54" type="car" route="down" depart="129" departSpeed="5"/>
    <vehicle id="right_55" type="car" route="right" depart="131" departSpeed="5"/>
    <vehicle id="down_56" type="car" route="down" depart="138" departSpeed="5"/>
    <vehicle id="left_57" type="car" route="left" depart="139" departSpeed="5"/>
    <vehicle id="right_58" type="car" route="right" depart="143" departSpeed="5"/>
    <vehicle id="right_59" type="car" route="right" depart="145" departSpeed="5"/>
    <vehicle id="up_60" type="car" route="up" depart="145" departSpeed="5"/>
    <vehicle id="up_61" type="car" route="up" depart="148" departSpeed="5"/>
    <vehicle id="down_62" type="car" route="down" depart="150" departSpeed="5"/>
    <vehicle id="up_63" type="car" route="up" depart="153" departSpeed="5"/>
    <vehicle id="up_64" type="car" route="up" depart="156" departSpeed="5"/>
    <vehicle id="left_65" type="car" route="left" depart="159" departSpeed="5"/>
    <vehicle id="right_66" type="car" route="right" depart="161" departSpeed="5"/>
    <vehicle id="up_67" type="car" route="up" depart="161" departSpeed="5"/>
    <vehicle id="down_68" type="car" route="down" depart="164" departSpeed="5"/>
    <vehicle id="right_69" type="car" route="right" depart="165" departSpeed="5"/>
    <vehicle id="left_70" type="car" route="left" depart="166" departSpeed="5"/>
    <vehicle id="left_71" type="car" route="left" depart="167" departSpeed="5"/>
    <vehicle id="down_72" type="car" route="down" depart="168" departSpeed="5"/>
    <vehicle id="up_73" type="car" route="up" depart="168" departSpeed="5"/>
    <vehicle id="left_74" type="car" route="left" depart="175" departSpeed="5"/>
    <vehicle id="down_75" type="car" route="down" depart="181" departSpeed="5"/>
    <vehicle id="right_76" type="car" route="right" depart="184" departSpeed="5"/>
    <vehicle id="left_77" type="car" route="left" depart="184" departSpeed="5"/>
    <vehicle id="right_78" type="car" route="right" depart="191" departSpeed="5"/>
    <vehicle id="down_79" type="car" route="down" depart="191" departSpeed="5"/>
    <vehicle id="down_80" type="car" route="down" depart="193" departSpeed="5"/>
    <vehicle id="right_81" type="car" route="right" depart="194" departSpeed="5"/>
    <vehicle id="down_82" type="car" route="down" depart="194" departSpeed="5"/>
    <vehicle id="right_83" type="car" route="right" depart="195" departSpeed="5"/>
    <vehicle id="right_84" type="car" route="right" depart="197" departSpeed="5"/>
    <vehicle id="up_85" type="car" route="up" depart="197" departSpeed="5"/>
    <vehicle id="up_86" type="car" route="up" depart="198" departSpeed="5"/>
    <vehicle id="right_87" type="car" route="right" depart="205" departSpeed="5"/>
    <vehicle id="down_88" type="car" route="down" depart="209" departSpeed="5"/>
    <vehicle id="right_89" type="car" route="right" depart="210" departSpeed="5"/>
    <vehicle id="down_90" type="car" route="down" depart="210" departSpeed="5"/>
    <vehicle id="down_91" type="car" route="down" depart="217" departSpeed="5"/>
    <vehicle id="down_92" type="car" route="down" depart="220" departSpeed="5"/>
    <vehicle id="left_93" type="car" route="left" depart="222" departSpeed="5"/>
    <vehicle id="up_94" type="car" route="up" depart="222" departSpeed="5"/>
    <vehicle id="left_95" type="car" route="left" depart="223" departSpeed="5"/>
    <vehicle id="right_96" type="car" route="right" depart="225" departSpeed="5"/>
    <vehicle id="down_97" type="car" route="down" depart="228" departSpeed="5"/>
    <vehicle id="down_98" type="car" route="down" depart="232" departSpeed="5"/>
    <vehicle id="left_99" type="car" route="left" depart="234" departSpeed="5"/>
    <vehicle id="up_100" type="car" route="up" depart="238" departSpeed="5"/>
    <vehicle id="left_101" type="car" route="left" depart="240" departSpeed="5"/>
    <vehicle id="left_102" type="car" route="left" depart="251" departSpeed="5"/>
    <vehicle id="down_103" type="car" route="down" depart="251" departSpeed="5"/>
    <vehicle id="up_104" type="car" route="up" depart="257" departSpeed="5"/>
    <vehicle id="down_105" type="car" route="down" depart="261" departSpeed="5"/>
    <vehicle id="up_106" type="car" route="up" depart="264" departSpeed="5"/>
    <vehicle id="down_107" type="car" route="down" depart="267" departSpeed="5"/>
    <vehicle id="right_108" type="car" route="right" depart="268" departSpeed="5"/>
    <vehicle id="up_109" type="car" route="up" depart="269" departSpeed="5"/>
    <vehicle id="up_110" type="car" route="up" depart="270" departSpeed="5"/>
    <vehicle id="up_111" type="car" route="up" depart="271" departSpeed="5"/>
    <vehicle id="down_112" type="car" route="down" depart="276" departSpeed="5"/>
    <vehicle id="up_113" type="car" route="up" depart="280" departSpeed="5"/>
    <vehicle id="left_114" type="car" route="left" depart="282" departSpeed="5"/>
    <vehicle id="up_115" type="car" route="up" depart="283" departSpeed="5"/>
    <vehicle id="right_116" type="car" route="right" depart="285" departSpeed="5"/>
    <vehicle id="up_117" type="car" route="up" depart="288" departSpeed="5"/>
    <vehicle id="right_118" type="car" route="right" depart="289" departSpeed="5"/>
    <vehicle id="down_119" type="car" route="down" depart="293" departSpeed="5"/>
    <vehicle id="right_120" type="car" route="right" depart="296" departSpeed="5"/>
    <vehicle id="up_121" type="car" route="up" depart="298" departSpeed="5"/>
    <vehicle id="right_122" type="car" route="right" depart="303" departSpeed="5"/>
    <vehicle id="up_123" type="car" route="up" depart="306" departSpeed="5"/>
    <vehicle id="left_124" type="car" route="left" depart="308" departSpeed="5"/>
    <vehicle id="down_125" type="car" route="down" depart="310" departSpeed="5"/>
    <vehicle id="down_126" type="car" route="down" depart="312" departSpeed="5"/>
    <vehicle id="up_127" type="car" route="up" depart="312" departSpeed="5"/>
    <vehicle id="left_128" type="car" route="left" depart="314" departSpeed="5"/>
    <vehicle id="up_129" type="car" route="up" depart="321" departSpeed="5"/>
    <vehicle id="right_130" type="car" route="right" depart="326" departSpeed="5"/>
    <vehicle id="left_131" type="car" route="left" depart="327" departSpeed="5"/>
    <vehicle id="up_132" type="car" route="up" depart="330" departSpeed="5"/>
    <vehicle id="left_133" type="car" route="left" depart="331" departSpeed="5"/>
    <vehicle id="left_134" type="car" route="left" depart="334" departSpeed="5"/>
    <vehicle id="right_135" type="car" route="right" depart="337" departSpeed="5"/>
    <vehicle id="left_136" type="car" route="left" depart="337" departSpeed="5"/>
    <vehicle id="down_137" type="car" route="down" depart="337" departSpeed="5"/>
    <vehicle id="right_138" type="car" route="right" depart="338" departSpeed="5"/>
    <vehicle id="right_139" type="car" route="right" depart="345" departSpeed="5"/>
    <vehicle id="right_140" type="car" route="right" depart="347" departSpeed="5"/>
    <vehicle id="right_141" type="car" route="right" depart="351" departSpeed="5"/>
    <vehicle id="down_142" type="car" route="down" depart="351" departSpeed="5"/>
    <vehicle id="left_143" type="car" route="left" depart="357" departSpeed="5"/>
    <vehicle id="up_144" type="car" route="up" depart="358" departSpeed="5"/>
    <vehicle id="up_145" type="car" route="up" depart="360" departSpeed="5"/>
    <vehicle id="up_146" type="car" route="up" depart="374" departSpeed="5"/>
    <vehicle id="up_147" type="car" route="up" depart="380" departSpeed="5"/>
    <vehicle id="down_148" type="car" route="down" depart="383" departSpeed="5"/>
    <vehicle id="down_149" type="car" route="down" depart="385" departSpeed="5"/>
    <vehicle id="right_150" type="car" route="right" depart="387" departSpeed="5"/>
    <vehicle id="up_151" type="car" route="up" depart="389" departSpeed="5"/>
    <vehicle id="up_152" type="car" route="up" depart="390" departSpeed="5"/>
    <vehicle id="down_153" type="car" route="down" depart="391" departSpeed="5"/>
    <vehicle id="right_154" type="car" route="right" depart="392" departSpeed="5"/>
    <vehicle id="down_155" type="car" route="down" depart="392" departSpeed="5"/>
    <vehicle id="up_156" type="car" route="up" depart="392" departSpeed="5"/>
    <vehicle id="down_157" type="car" route="down" depart="394" departSpeed="5"/>
    <vehicle id="right_158" type="car" route="right" depart="401" departSpeed="5"/>
    <vehicle id="right_159" type="car" route="right" depart="402" departSpeed="5"/>
    <vehicle id="down_160" type="car" route="down" depart="404" departSpeed="5"/>
    <vehicle id="up_161" type="car" route="up" depart="404" departSpeed="5"/>
    <vehicle id="right_162" type="car" route="right" depart="409" departSpeed="5"/>
    <vehicle id="down_163" type="car" route="down" depart="410" departSpeed="5"/>
    <vehicle id="left_164" type="car" route="left" depart="417" departSpeed="5"/>
    <vehicle id="left_165" type="car" route="left" depart="421" departSpeed="5"/>
    <vehicle id="left_166" type="car" route="left" depart="425" departSpeed="5"/>
    <vehicle id="up_167" type="car" route="up" depart="427" departSpeed="5"/>
    <vehicle id="up_168" type="car" route="up" depart="428" departSpeed="5"/>
    <vehicle id="down_169" type="car" route="down" depart="432" departSpeed="5"/>
    <vehicle id="left_170" type="car" route="left" depart="434" departSpeed="5"/>
    <vehicle id="down_171" type="car" route="down" depart="436" departSpeed="5"/>
    <vehicle id="down_172" type="car" route="down" depart="438" departSpeed="5"/>
    <vehicle id="up_173" type="car" route="up" depart="442" departSpeed="5"/>
    <vehicle id="left_174" type="car" route="left" depart="446" departSpeed="5"/>
    <vehicle id="up_175" type="car" route="up" depart="446" departSpeed="5"/>
    <vehicle id="right_176" type="car" route="right" depart="449" departSpeed="5"/>
    <vehicle id="left_177" type="car" route="left" depart="451" departSpeed="5"/>
    <vehicle id="left_178" type="car" route="left" depart="452" departSpeed="5"/>
    <vehicle id="left_179" type="car" route="left" depart="454" departSpeed="5"/>
    <vehicle id="down_180" type="car" route="down" depart="454" departSpeed="5"/>
    <vehicle id="up_181" type="car" route="up" depart="454" departSpeed="5"/>
    <vehicle id="down_182" type="car" route="down" depart="462" departSpeed="5"/>
    <vehicle id="up_183" type="car" route="up" depart="465" departSpeed="5"/>
    <vehicle id="up_184" type="car" route="up" depart="468" departSpeed="5"/>
    <vehicle id="right_185" type="car" route="right" depart="471" departSpeed="5"/>
    <vehicle id="right_186" type="car" route="right" depart="475" departSpeed="5"/>
    <vehicle id="left_187" type="car" route="left" depart="476" departSpeed="5"/>
    <vehicle id="down_188" type="car" route="down" depart="479" departSpeed="5"/>
    <vehicle id="right_189" type="car" route="right" depart="482" departSpeed="5"/>
    <vehicle id="left_190" type="car" route="left" depart="484" departSpeed="5"/>
    <vehicle id="left_191" type="car" route="left" depart="485" departSpeed="5"/>
    <vehicle id="down_192" type="car" route="down" depart="487" departSpeed="5"/>
    <vehicle id="up_193" type="car" route="up" depart="488" departSpeed="5"/>
    <vehicle id="up_194" type="car" route="up" depart="490" departSpeed="5"/>
    <vehicle id="right_195" type="car" route="right" depart="493" departSpeed="5"/>
    <vehicle id="up_196" type="car" route="up" depart="493" departSpeed="5"/>
    <vehicle id="right_197" type="car" route="right" depart="494" departSpeed="5"/>
    <vehicle id="right_198" type="car" route="right" depart="495" departSpeed="5"/>
    <vehicle id="right_199" type="car" route="right" depart="496" departSpeed="5"/>
    <vehicle id="left_200" type="car" route="left" depart="497" departSpeed="5"/>
    <vehicle id="right_201" type="car" route="right" depart="499" departSpeed="5"/>
    <vehicle id="up_202" type="car" route="up" depart="503" departSpeed="5"/>
    <vehicle id="down_203" type="car" route="down" depart="507" departSpeed="5"/>
    <vehicle id="up_204" type="car" route="up" depart="508" departSpeed="5"/>
    <vehicle id="right_205" type="car" route="right" depart="510" departSpeed="5"/>
    <vehicle id="up_206" type="car" route="up" depart="511" departSpeed="5"/>
    <vehicle id="down_207" type="car" route="down" depart="512" departSpeed="5"/>
    <vehicle id="up_208" type="car" route="up" depart="512" departSpeed="5"/>
    <vehicle id="down_209" type="car" route="down" depart="517" departSpeed="5"/>
    <vehicle id="right_210" type="car" route="right" depart="518" departSpeed="5"/>
    <vehicle id="left_211" type="car" route="left" depart="524" departSpeed="5"/>
    <vehicle id="up_212" type="car" route="up" depart="524" departSpeed="5"/>
    <vehicle id="right_213" type="car" route="right" depart="527" departSpeed="5"/>
    <vehicle id="down_214" type="car" route="down" depart="529" departSpeed="5"/>
    <vehicle id="right_215" type="car" route="right" depart="533" departSpeed="5"/>
    <vehicle id="left_216" type="car" route="left" depart="533" departSpeed="5"/>
    <vehicle id="down_217" type="car" route="down" depart="533" departSpeed="5"/>
    <vehicle id="left_218" type="car" route="left" depart="539" departSpeed="5"/>
    <vehicle id="right_219" type="car" route="right" depart="540" departSpeed="5"/>
    <vehicle id="left_220" type="car" route="left" depart="550" departSpeed="5"/>
    <vehicle id="down_221" type="car" route="down" depart="551" departSpeed="5"/>
    <vehicle id="down_222" type="car" route="down" depart="552" departSpeed="5"/>
    <vehicle id="up_223" type="car" route="up" depart="554" departSpeed="5"/>
    <vehicle id="down_224" type="car" route="down" depart="557" departSpeed="5"/>
    <vehicle id="down_225" type="car" route="down" depart="558" departSpeed="5"/>
    <vehicle id="up_226" type="car" route="up" depart="561" departSpeed="5"/>
    <vehicle id="left_227" type="car" route="left" depart="562" departSpeed="5"/>
    <vehicle id="right_228" type="car" route="right" depart="565" departSpeed="5"/>
    <vehicle id="left_229" type="car" route="left" depart="566" departSpeed="5"/>
    <vehicle id="down_230" type="car" route="down" depart="569" departSpeed="5"/>
    <vehicle id="left_231" type="car" route="left" depart="571" departSpeed="5"/>
    <vehicle id="right_232" type="car" route="right" depart="572" departSpeed="5"/>
    <vehicle id="up_233" type="car" route="up" depart="574" departSpeed="5"/>
    <vehicle id="left_234" type="car" route="left" depart="575" departSpeed="5"/>
    <vehicle id="down_235" type="car" route="down" depart="575" departSpeed="5"/>
    <vehicle id="up_236" type="car" route="up" depart="575" departSpeed="5"/>
    <vehicle id="left_237" type="car" route="left" depart="581" departSpeed="5"/>
    <vehicle id="down_238" type="car" route="down" depart="583" departSpeed="5"/>
    <vehicle id="down_239" type="car" route="down" depart="587" departSpeed="5"/>
    <vehicle id="down_240" type="car" route="down" depart="589" departSpeed="5"/>
    <vehicle id="left_241" type="car" route="left" depart="600" departSpeed="5"/>
    <vehicle id="left_242" type="car" route="left" depart="601" departSpeed="5"/>
    <vehicle id="down_243" type="car" route="down" depart="603" departSpeed="5"/>
    <vehicle id="right_244" type="car" route="right" depart="604" departSpeed="5"/>
    <vehicle id="left_245" type="car" route="left" depart="607" departSpeed="5"/>
    <vehicle id="up_246" type="car" route="up" depart="607" departSpeed="5"/>
    <vehicle id="down_247" type="car" route="down" depart="609" departSpeed="5"/>
    <vehicle id="down_248" type="car" route="down" depart="612" departSpeed="5"/>
    <vehicle id="right_249" type="car" route="right" depart="613" departSpeed="5"/>
    <vehicle id="right_250" type="car" route="right" depart="622" departSpeed="5"/>
    <vehicle id="up_251" type="car" route="up" depart="628" departSpeed="5"/>
    <vehicle id="right_252" type="car" route="right" depart="635" departSpeed="5"/>
    <vehicle id="down_253" type="car" route="down" depart="635" departSpeed="5"/>
    <vehicle id="up_254" type="car" route="up" depart="635" departSpeed="5"/>
    <vehicle id="left_255" type="car" route="left" depart="638" departSpeed="5"/>
    <vehicle id="left_256" type="car" route="left" depart="639" departSpeed="5"/>
    <vehicle id="left_257" type="car" route="left" depart="640" departSpeed="5"/>
    <vehicle id="right_258" type="car" route="right" depart="644" departSpeed="5"/>
    <vehicle id="left_259" type="car" route="left" depart="644" departSpeed="5"/>
    <vehicle id="up_260" type="car" route="up" depart="645" departSpeed="5"/>
    <vehicle id="down_261" type="car" route="down" depart="648" departSpeed="5"/>
    <vehicle id="left_262" type="car" route="left" depart="655" departSpeed="5"/>
    <vehicle id="up_263" type="car" route="up" depart="655" departSpeed="5"/>
    <vehicle id="right_264" type="car" route="right" depart="656" departSpeed="5"/>
    <vehicle id="right_265" type="car" route="right" depart="662" departSpeed="5"/>
    <vehicle id="up_266" type="car" route="up" depart="662" departSpeed="5"/>
    <vehicle id="left_267" type="car" route="left" depart="668" departSpeed="5"/>
    <vehicle id="down_268" type="car" route="down" depart="670" departSpeed="5"/>
    <vehicle id="right_269" type="car" route="right" depart="673" departSpeed="5"/>
    <vehicle id="right_270" type="car" route="right" depart="674" departSpeed="5"/>
    <vehicle id="down_271" type="car" route="down" depart="679" departSpeed="5"/>
    <vehicle id="left_272" type="car" route="left" depart="680" departSpeed="5"/>
    <vehicle id="up_273" type="car" route="up" depart="684" departSpeed="5"/>
    <vehicle id="down_274" type="car" route="down" depart="686" departSpeed="5"/>
    <vehicle id="left_275" type="car" route="left" depart="687" departSpeed="5"/>
    <vehicle id="down_276" type="car" route="down" depart="694" departSpeed="5"/>
    <vehicle id="up_277" type="car" route="up" depart="695" departSpeed="5"/>
    <vehicle id="up_278" type="car" route="up" depart="697" departSpeed="5"/>
    <vehicle id="left_279" type="car" route="left" depart="700" departSpeed="5"/>
    <vehicle id="left_280" type="car" route="left" depart="702" departSpeed="5"/>
    <vehicle id="left_281" type="car" route="left" depart="704" departSpeed="5"/>
    <vehicle id="right_282" type="car" route="right" depart="707" departSpeed="5"/>
    <vehicle id="down_283" type="car" route="down" depart="707" departSpeed="5"/>
    <vehicle id="up_284" type="car" route="up" depart="707" departSpeed="5"/>
    <vehicle id="up_285" type="car" route="up" depart="708" departSpeed="5"/>
    <vehicle id="down_286" type="car" route="down" depart="709" departSpeed="5"/>
    <vehicle id="right_287" type="car" route="right" depart="710" departSpeed="5"/>
    <vehicle id="up_288" type="car" route="up" depart="711" departSpeed="5"/>
    <vehicle id="down_289" type="car" route="down" depart="715" departSpeed="5"/>
    <vehicle id="up_290" type="car" route="up" depart="715" departSpeed="5"/>
    <vehicle id="left_291" type="car" route="left" depart="716" departSpeed="5"/>
    <vehicle id="down_292" type="car" route="down" depart="716" departSpeed="5"/>
    <vehicle id="up_293" type="car" route="up" depart="718" departSpeed="5"/>
    <vehicle id="down_294" type="car" route="down" depart="720" departSpeed="5"/>
    <vehicle id="up_295" type="car" route="up" depart="722" departSpeed="5"/>
    <vehicle id="down_296" type="car" route="down" depart="725" departSpeed="5"/>
    <vehicle id="right_297" type="car" route="right" depart="726" departSpeed="5"/>
    <vehicle id="up_298" type="car" route="up" depart="731" departSpeed="5"/>
    <vehicle id="right_299" type="car" route="right" depart="732" departSpeed="5"/>
    <vehicle id="up_300" type="car" route="up" depart="735" departSpeed="5"/>
    <vehicle id="right_301" type="car" route="right" depart="743" departSpeed="5"/>
    <vehicle id="down_302" type="car" route="down" depart="743" departSpeed="5"/>
    <vehicle id="up_303" type="car" route="up" depart="744" departSpeed="5"/>
    <vehicle id="right_304" type="car" route="right" depart="751" departSpeed="5"/>
    <vehicle id="down_305" type="car" route="down" depart="752" departSpeed="5"/>
    <vehicle id="right_306" type="car" route="right" depart="756" departSpeed="5"/>
    <vehicle id="down_307" type="car" route="down" depart="757" departSpeed="5"/>
    <vehicle id="right_308" type="car" route="right" depart="758" departSpeed="5"/>
    <vehicle id="right_309" type="car" route="right" depart="764" departSpeed="5"/>
    <vehicle id="up_310" type="car" route="up" depart="764" departSpeed="5"/>
    <vehicle id="down_311" type="car" route="down" depart="766" departSpeed="5"/>
    <vehicle id="right_312" type="car" route="right" depart="768" departSpeed="5"/>
    <vehicle id="left_313" type="car" route="left" depart="768" departSpeed="5"/>
    <vehicle id="up_314" type="car" route="up" depart="768" departSpeed="5"/>
    <vehicle id="left_315" type="car" route="left" depart="771" departSpeed="5"/>
    <vehicle id="down_316" type="car" route="down" depart="771" departSpeed="5"/>
    <vehicle id="right_317" type="car" route="right" depart="779" departSpeed="5"/>
    <vehicle id="right_318" type="car" route="right" depart="780" departSpeed="5"/>
    <vehicle id="up_319" type="car" route="up" depart="780" departSpeed="5"/>
    <vehicle id="up_320" type="car" route="up" depart="781" departSpeed="5"/>
    <vehicle id="down_321" type="car" route="down" depart="782" departSpeed="5"/>
    <vehicle id="up_322" type="car" route="up" depart="782" departSpeed="5"/>
    <vehicle id="left_323" type="car" route="left" depart="783" departSpeed="5"/>
    <vehicle id="up_324" type="car" route="up" depart="783" departSpeed="5"/>
    <vehicle id="left_325" type="car" route="left" depart="788" departSpeed="5"/>
    <vehicle id="up_326" type="car" route="up" depart="788" departSpeed="5"/>
    <vehicle id="right_327" type="car" route="right" depart="789" departSpeed="5"/>
    <vehicle id="up_328" type="car" route="up" depart="790" departSpeed="5"/>
    <vehicle id="down_329" type="car" route="down" depart="792" departSpeed="5"/>
    <vehicle id="right_330" type="car" route="right" depart="797" departSpeed="5"/>
    <vehicle id="up_331" type="car" route="up" depart="804" departSpeed="5"/>
    <vehicle id="right_332" type="car" route="right" depart="806" departSpeed="5"/>
    <vehicle id="right_333" type="car" route="right" depart="809" departSpeed="5"/>
    <vehicle id="right_334" type="car" route="right" depart="815" departSpeed="5"/>
    <vehicle id="up_335" type="car" route="up" depart="816" departSpeed="5"/>
    <vehicle id="left_336" type="car" route="left" depart="818" departSpeed="5"/>
    <vehicle id="left_337" type="car" route="left" depart="821" departSpeed="5"/>
    <vehicle id="up_338" type="car" route="up" depart="821" departSpeed="5"/>
    <vehicle id="right_339" type="car" route="right" depart="823" departSpeed="5"/>
    <vehicle id="down_340" type="car" route="down" depart="823" departSpeed="5"/>
    <vehicle id="right_341" type="car" route="right" depart="824" departSpeed="5"/>
    <vehicle id="up_342" type="car" route="up" depart="826" departSpeed="5"/>
    <vehicle id="down_343" type="car" route="down" depart="829" departSpeed="5"/>
    <vehicle id="left_344" type="car" route="left" depart="832" departSpeed="5"/>
    <vehicle id="up_345" type="car" route="up" depart="832" departSpeed="5"/>
    <vehicle id="down_346" type="car" route="down" depart="835" departSpeed="5"/>
    <vehicle id="left_347" type="car" route="left" depart="840" departSpeed="5"/>
    <vehicle id="left_348" type="car" route="left" depart="841" departSpeed="5"/>
    <vehicle id="up_349" type="car" route="up" depart="843" departSpeed="5"/>
    <vehicle id="left_350" type="car" route="left" depart="849" departSpeed="5"/>
    <vehicle id="down_351" type="car" route="down" depart="850" departSpeed="5"/>
    <vehicle id="down_352" type="car" route="down" depart="857" departSpeed="5"/>
    <vehicle id="left_353" type="car" route="left" depart="865" departSpeed="5"/>
    <vehicle id="right_354" type="car" route="right" depart="866" departSpeed="5"/>
    <vehicle id="left_355" type="car" route="left" depart="867" departSpeed="5"/>
    <vehicle id="left_356" type="car" route="left" depart="869" departSpeed="5"/>
    <vehicle id="down_357" type="car" route="down" depart="869" departSpeed="5"/>
    <vehicle id="up_358" type="car" route="up" depart="871" departSpeed="5"/>
    <vehicle id="left_359" type="car" route="left" depart="872" departSpeed="5"/>
    <vehicle id="left_360" type="car" route="left" depart="873" departSpeed="5"/>
    <vehicle id="down_361" type="car" route="down" depart="873" departSpeed="5"/>
    <vehicle id="right_362" type="car" route="right" depart="874" departSpeed="5"/>
    <vehicle id="right_363" type="car" route="right" depart="880" departSpeed="5"/>
    <vehicle id="left_364" type="car" route="left" depart="898" departSpeed="5"/>
    <vehicle id="right_365" type="car" route="right" depart="899" departSpeed="5"/>