<routes>
                                       <vType id="car" accel="1.0" decel="4.5" sigma="0.7" length="5" minGap="3" maxSpeed="15" guiShape="passenger"/>

                                       <route id="WETop" edges="5i 1i 2o" />
                                       <route id="EWTop" edges="2i 1o 5o" />
                                       <route id="NS" edges="4i 3o 8i" />
                                       <route id="SN" edges="8o 3i 4o" />
                                       <route id="WEBottom" edges="7o 11o" />
                                       <route id="EWBottom" edges="11i 7i" />

                                       <route id="t2" edges="8o 7i" />
                                       <route id="t3" edges="4i 1o 6i" />
                                       <route id="t4" edges="7o 3i 2o" />
                                       <route id="t5" edges="6o 1i 4o" />
                                       <route id="t6" edges="5i 1i 3o 11o" />
                                       
    <vehicle id="EWBottom_0" type="car" route="EWBottom" depart="0" departSpeed="5"/>
    <vehicle id="t6_1" type="car" route="t6" depart="1" departSpeed="5"/>
    <vehicle id="EWTop_2" type="car" route="EWTop" depart="3" departSpeed="5"/>
    <vehicle id="WEBottom_3" type="car" route="WEBottom" depart="6" departSpeed="5"/>
    <vehicle id="SN_4" type="car" route="SN" depart="7" departSpeed="5"/>
    <vehicle id="EWBottom_5" type="car" route="EWBottom" depart="8" departSpeed="5"/>
    <vehicle id="NS_6" type="car" route="NS" depart="8" departSpeed="5"/>
    <vehicle id="t3_7" type="car" route="t3" depart="8" departSpeed="5"/>
    <vehicle id="WETop_8" type="car" route="WETop" depart="10" departSpeed="5"/>
    <vehicle id="t4_9" type="car" route="t4" depart="10" departSpeed="5"/>
    <vehicle id="EWBottom_10" type="car" route="EWBottom" depart="12" departSpeed="5"/>
    <vehicle id="t5_11" type="car" route="t5" depart="12" departSpeed="5"/>
    <vehicle id="t3_12" type="car" route="t3" depart="13" departSpeed="5"/>
    <vehicle id="WETop_13" type="car" route="WETop" depart="15" departSpeed="5"/>
    <vehicle id="NS_14" type="car" route="NS" depart="16" departSpeed="5"/>
    <vehicle id="WETop_15" type="car" route="WETop" depart="18" departSpeed="5"/>
    <vehicle id="t3_16" type="car" route="t3" depart="18" departSpeed="5"/>
    <vehicle id="NS_17" type="car" route="NS" depart="19" departSpeed="5"/>
    <vehicle id="t6_18" type="car" route="t6" depart="19" departSpeed="5"/>
    <vehicle id="t2_19" type="car" route="t2" depart="20" departSpeed="5"/>
    <vehicle id="t6_20" type="car" route="t6" depart="20" departSpeed="5"/>
    <vehicle id="WETop_21" type="car" route="WETop" depart="22" departSpeed="5"/>
    <vehicle id="t6_22" type="car" route="t6" depart="24" departSpeed="5"/>
    <vehicle id="EWTop_23" type="car" route="EWTop" depart="25" departSpeed="5"/>
    <vehicle id="EWBottom_24" type="car" route="EWBottom" depart="25" departSpeed="5"/>
    <vehicle id="t4_25" type="car" route="t4" depart="25" departSpeed="5"/>
    <vehicle id="WETop_26" type="car" route="WETop" depart="27" departSpeed="5"/>
    <vehicle id="EWBottom_27" type="car" route="EWBottom" depart="27" departSpeed="5"/>
    <vehicle id="WEBottom_28" type="car" route="WEBottom" depart="28" departSpeed="5"/>
    <vehicle id="t6_29" type="car" route="t6" depart="28" departSpeed="5"/>
    <vehicle id="NS_30" type="car" route="NS" depart="29" departSpeed="5"/>
    <vehicle id="WEBottom_31" type="car" route="WEBottom" depart="30" departSpeed="5"/>
    <vehicle id="t6_32" type="car" route="t6" depart="30" departSpeed="5"/>
    <vehicle id="t4_33" type="car" route="t4" depart="31" departSpeed="5"/>
    <vehicle id="SN_34" type="car" route="SN" depart="33" departSpeed="5"/>
    <vehicle id="t2_35" type="car" route="t2" depart="34" departSpeed="5"/>
    <vehicle id="t5_36" type="car" route="t5" depart="34" departSpeed="5"/>
    <vehicle id="WEBottom_37" type="car" route="WEBottom" depart="35" departSpeed="5"/>
    <vehicle id="SN_38" type="car" route="SN" depart="35" departSpeed="5"/>
    <vehicle id="EWTop_39" type="car" route="EWTop" depart="39" departSpeed="5"/>
    <vehicle id="NS_40" type="car" route="NS" depart="39" departSpeed="5"/>
    <vehicle id="WEBottom_41" type="car" route="WEBottom" depart="40" departSpeed="5"/>
    <vehicle id="t2_42" type="car" route="t2" depart="40" departSpeed="5"/>
    <vehicle id="WETop_43" type="car" route="WETop" depart="41" departSpeed="5"/>
    <vehicle id="EWTop_44" type="car" route="EWTop" depart="42" departSpeed="5"/>
    <vehicle id="SN_45" type="car" route="SN" depart="42" departSpeed="5"/>
    <vehicle id="t5_46" type="car" route="t5" depart="42" departSpeed="5"/>
    <vehicle id="WEBottom_47" type="car" route="WEBottom" depart="43" departSpeed="5"/>
    <vehicle id="t4_48" type="car" route="t4" depart="43" departSpeed="5"/>
    <vehicle id="WETop_49" type="car" route="WETop" depart="44" departSpeed="5"/>
    <vehicle id="t6_50" type="car" route="t6" depart="44" departSpeed="5"/>
    <vehicle id="t2_51" type="car" route="t2" depart="46" departSpeed="5"/>
    <vehicle id="t2_52" type="car" route="t2" depart="47" departSpeed="5"/>
    <vehicle id="t5_53" type="car" route="t5" depart="47" departSpeed="5"/>
    <vehicle id="t3_54" type="car" route="t3" depart="48" departSpeed="5"/>
    <vehicle id="EWTop_55" type="car" route="EWTop" depart="49" departSpeed="5"/>
    <vehicle id="t4_56" type="car" route="t4" depart="50" departSpeed="5"/>
    <vehicle id="t5_57" type="car" route="t5" depart="50" departSpeed="5"/>
    <vehicle id="t6_58" type="car" route="t6" depart="50" departSpeed="5"/>
    <vehicle id="t2_59" type="car" route="t2" depart="52" departSpeed="5"/>
    <vehicle id="t4_60" type="car" route="t4" depart="53" departSpeed="5"/>
    <vehicle id="t5_61" type="car" route="t5" depart="53" departSpeed="5"/>
    <vehicle id="WETop_62" type="car" route="WETop" depart="54" departSpeed="5"/>
    <vehicle id="WEBottom_63" type="car" route="WEBottom" depart="54" departSpeed="5"/>
    <vehicle id="t4_64" type="car" route="t4" depart="56" departSpeed="5"/>
    <vehicle id="t3_65" type="car" route="t3" depart="57" departSpeed="5"/>
    <vehicle id="t6_66" type="car" route="t6" depart="57" departSpeed="5"/>
    <vehicle id="WETop_67" type="car" route="WETop" depart="58" departSpeed="5"/>
    <vehicle id="SN_68" type="car" route="SN" depart="60" departSpeed="5"/>
    <vehicle id="WETop_69" type="car" route="WETop" depart="64" departSpeed="5"/>
    <vehicle id="t6_70" type="car" route="t6" depart="64" departSpeed="5"/>
    <vehicle id="EWTop_71" type="car" route="EWTop" depart="65" departSpeed="5"/>
    <vehicle id="WETop_72" type="car" route="WETop" depart="66" departSpeed="5"/>
    <vehicle id="t3_73" type="car" route="t3" depart="66" departSpeed="5"/>
    <vehicle id="EWBottom_74" type="car" route="EWBottom" depart="68" departSpeed="5"/>
    <vehicle id="t3_75" type="car" route="t3" depart="69" departSpeed="5"/>
    <vehicle id="WETop_76" type="car" route="WETop" depart="70" departSpeed="5"/>
    <vehicle id="SN_77" type="car" route="SN" depart="70" departSpeed="5"/>
    <vehicle id="t6_78" type="car" route="t6" depart="70" departSpeed="5"/>
    <vehicle id="WETop_79" type="car" route="WETop" depart="71" departSpeed="5"/>
    <vehicle id="SN_80" type="car" route="SN" depart="72" departSpeed="5"/>
    <vehicle id="t2_81" type="car" route="t2" depart="72" departSpeed="5"/>
    <vehicle id="t2_82" type="car" route="t2" depart="73" departSpeed="5"/>
    <vehicle id="t6_83" type="car" route="t6" depart="75" departSpeed="5"/>
    <vehicle id="NS_84" type="car" route="NS" depart="77" departSpeed="5"/>
    <vehicle id="t3_85" type="car" route="t3" depart="78" departSpeed="5"/>
    <vehicle id="WETop_86" type="car" route="WETop" depart="79" departSpeed="5"/>
    <vehicle id="WETop_87" type="car" route="WETop" depart="80" departSpeed="5"/>
    <vehicle id="EWTop_88" type="car" route="EWTop" depart="81" departSpeed="5"/>
    <vehicle id="NS_89" type="car" route="NS" depart="81" departSpeed="5"/>
    <vehicle id="t2_90" type="car" route="t2" depart="81" departSpeed="5"/>
    <vehicle id="SN_91" type="car" route="SN" depart="82" departSpeed="5"/>
    <vehicle id="t6_92" type="car" route="t6" depart="82" departSpeed="5"/>
    <vehicle id="WEBottom_93" type="car" route="WEBottom" depart="83" departSpeed="5"/>
    <vehicle id="SN_94" type="car" route="SN" depart="83" departSpeed="5"/>
    <vehicle id="SN_95" type="car" route="SN" depart="85" departSpeed="5"/>
    <vehicle id="t3_96" type="car" route="t3" depart="85" departSpeed="5"/>
    <vehicle id="t6_97" type="car" route="t6" depart="85" departSpeed="5"/>
    <vehicle id="SN_98" type="car" route="SN" depart="87" departSpeed="5"/>
    <vehicle id="SN_99" type="car" route="SN" depart="88" departSpeed="5"/>
    <vehicle id="t2_100" type="car" route="t2" depart="88" departSpeed="5"/>
    <vehicle id="t3_101" type="car" route="t3" depart="88" departSpeed="5"/>
    <vehicle id="t5_102" type="car" route="t5" depart="91" departSpeed="5"/>
    <vehicle id="t2_103" type="car" route="t2" depart="92" departSpeed="5"/>
    <vehicle id="t3_104" type="car" route="t3" depart="92" departSpeed="5"/>
    <vehicle id="SN_105" type="car" route="SN" depart="94" departSpeed="5"/>
    <vehicle id="t3_106" type="car" route="t3" depart="94" departSpeed="5"/>
    <vehicle id="t4_107" type="car" route="t4" depart="94" departSpeed="5"/>
    <vehicle id="t2_108" type="car" route="t2" depart="95" departSpeed="5"/>
    <vehicle id="WEBottom_109" type="car" route="WEBottom" depart="96" departSpeed="5"/>
    <vehicle id="t3_110" type="car" route="t3" depart="96" departSpeed="5"/>
    <vehicle id="t6_111" type="car" route="t6" depart="96" departSpeed="5"/>
    <vehicle id="t3_112" type="car" route="t3" depart="97" departSpeed="5"/>
    <vehicle id="EWBottom_113" type="car" route="EWBottom" depart="98" departSpeed="5"/>
    <vehicle id="EWTop_114" type="car" route="EWTop" depart="99" departSpeed="5"/>
    <vehicle id="WEBottom_115" type="car" route="WEBottom" depart="99" departSpeed="5"/>
    <vehicle id="EWBottom_116" type="car" route="EWBottom" depart="99" departSpeed="5"/>
    <vehicle id="t4_117" type="car" route="t4" depart="99" departSpeed="5"/>
    <vehicle id="t3_118" type="car" route="t3" depart="100" departSpeed="5"/>
    <vehicle id="t4_119" type="car" route="t4" depart="100" departSpeed="5"/>
    <vehicle id="t5_120" type="car" route="t5" depart="100" departSpeed="5"/>
    <vehicle id="EWTop_121" type="car" route="EWTop" depart="101" departSpeed="5"/>
    <vehicle id="t3_122" type="car" route="t3" depart="101" departSpeed="5"/>
    <vehicle id="WETop_123" type="car" route="WETop" depart="103" departSpeed="5"/>
    <vehicle id="t4_124" type="car" route="t4" depart="104" departSpeed="5"/>
    <vehicle id="t5_125" type="car" route="t5" depart="105" departSpeed="5"/>
    <vehicle id="t6_126" type="car" route="t6" depart="105" departSpeed="5"/>
    <vehicle id="NS_127" type="car" route="NS" depart="106" departSpeed="5"/>
    <vehicle id="EWTop_128" type="car" route="EWTop" depart="108" departSpeed="5"/>
    <vehicle id="EWBottom_129" type="car" route="EWBottom" depart="108" departSpeed="5"/>
    <vehicle id="t5_130" type="car" route="t5" depart="108" departSpeed="5"/>
    <vehicle id="t2_131" type="car" route="t2" depart="109" departSpeed="5"/>
    <vehicle id="t5_132" type="car" route="t5" depart="109" departSpeed="5"/>
    <vehicle id="SN_133" type="car" route="SN" depart="111" departSpeed="5"/>
    <vehicle id="WETop_134" type="car" route="WETop" depart="112" departSpeed="5"/>
    <vehicle id="EWBottom_135" type="car" route="EWBottom" depart="113" departSpeed="5"/>
    <vehicle id="EWTop_136" type="car" route="EWTop" depart="114" departSpeed="5"/>
    <vehicle id="WETop_137" type="car" route="WETop" depart="116" departSpeed="5"/>
    <vehicle id="EWTop_138" type="car" route="EWTop" depart="116" departSpeed="5"/>
    <vehicle id="WETop_139" type="car" route="WETop" depart="117" departSpeed="5"/>
    <vehicle id="t6_140" type="car" route="t6" depart="117" departSpeed="5"/>
    <vehicle id="EWBottom_141" type="car" route="EWBottom" depart="122" departSpeed="5"/>
    <vehicle id="WETop_142" type="car" route="WETop" depart="123" departSpeed="5"/>
    <vehicle id="t4_143" type="car" route="t4" depart="123" departSpeed="5"/>
    <vehicle id="EWTop_144" type="car" route="EWTop" depart="124" departSpeed="5"/>
    <vehicle id="EWBottom_145" type="car" route="EWBottom" depart="124" departSpeed="5"/>
    <vehicle id="t4_146" type="car" route="t4" depart="124" departSpeed="5"/>
    <vehicle id="t5_147" type="car" route="t5" depart="130" departSpeed="5"/>
    <vehicle id="NS_148" type="car" route="NS" depart="131" departSpeed="5"/>
    <vehicle id="t5_149" type="car" route="t5" depart="131" departSpeed="5"/>
    <vehicle id="t2_150" type="car" route="t2" depart="132" departSpeed="5"/>
    <vehicle id="WETop_151" type="car" route="WETop" depart="133" departSpeed="5"/>
    <vehicle id="EWBottom_152" type="car" route="EWBottom" depart="135" departSpeed="5"/>
    <vehicle id="t6_153" type="car" route="t6" depart="135" departSpeed="5"/>
    <vehicle id="t2_154" type="car" route="t2" depart="136" departSpeed="5"/>
    <vehicle id="EWTop_155" type="car" route="EWTop" depart="139" departSpeed="5"/>
    <vehicle id="EWBottom_156" type="car" route="EWBottom" depart="139" departSpeed="5"/>
    <vehicle id="t5_157" type="car" route="t5" depart="140" departSpeed="5"/>
    <vehicle id="EWTop_158" type="car" route="EWTop" depart="142" departSpeed="5"/>
    <vehicle id="t4_159" type="car" route="t4" depart="143" departSpeed="5"/>
    <vehicle id="WEBottom_160" type="car" route="WEBottom" depart="145" departSpeed="5"/>
    <vehicle id="t6_161" type="car" route="t6" depart="145" departSpeed="5"/>
    <vehicle id="t6_162" type="car" route="t6" depart="146" departSpeed="5"/>
    <vehicle id="EWBottom_163" type="car" route="EWBottom" depart="148" departSpeed="5"/>
    <vehicle id="t4_164" type="car" route="t4" depart="148" departSpeed="5"/>
    <vehicle id="WEBottom_165" type="car" route="WEBottom" depart="152" departSpeed="5"/>
    <vehicle id="EWBottom_166" type="car" route="EWBottom" depart="152" departSpeed="5"/>
    <vehicle id="t2_167" type="car" route="t2" depart="152" departSpeed="5"/>
    <vehicle id="t6_168" type="car" route="t6" depart="153" departSpeed="5"/>
    <vehicle id="SN_169" type="car" route="SN" depart="155" departSpeed="5"/>
    <vehicle id="WEBottom_170" type="car" route="WEBottom" depart="157" departSpeed="5"/>
    <vehicle id="NS_171" type="car" route="NS" depart="157" departSpeed="5"/>
    <vehicle id="t4_172" type="car" route="t4" depart="157" departSpeed="5"/>
    <vehicle id="t5_173" type="car" route="t5" depart="159" departSpeed="5"/>
    <vehicle id="WETop_174" type="car" route="WETop" depart="160" departSpeed="5"/>
    <vehicle id="t3_175" type="car" route="t3" depart="160" departSpeed="5"/>
    <vehicle id="t3_176" type="car" route="t3" depart="161" departSpeed="5"/>
    <vehicle id="t4_177" type="car" route="t4" depart="161" departSpeed="5"/>
    <vehicle id="t6_178" type="car" route="t6" depart="161" departSpeed="5"/>
    <vehicle id="EWBottom_179" type="car" route="EWBottom" depart="162" departSpeed="5"/>
    <vehicle id="WETop_180" type="car" route="WETop" depart="163" departSpeed="5"/>
    <vehicle id="t3_181" type="car" route="t3" depart="163" departSpeed="5"/>
    <vehicle id="t5_182" type="car" route="t5" depart="163" departSpeed="5"/>
    <vehicle id="t6_183" type="car" route="t6" depart="163" departSpeed="5"/>
    <vehicle id="WETop_184" type="car" route="WETop" depart="164" departSpeed="5"/>
    <vehicle id="NS_185" type="car" route="NS" depart="164" departSpeed="5"/>
    <vehicle id="t3_186" type="car" route="t3" depart="164" departSpeed="5"/>
    <vehicle id="t4_187" type="car" route="t4" depart="164" departSpeed="5"/>
    <vehicle id="t6_188" type="car" route="t6" depart="164" departSpeed="5"/>
    <vehicle id="t5_189" type="car" route="t5" depart="165" departSpeed="5"/>
    <vehicle id="t6_190" type="car" route="t6" depart="165" departSpeed="5"/>
    <vehicle id="EWTop_191" type="car" route="EWTop" depart="166" departSpeed="5"/>
    <vehicle id="WEBottom_192" type="car" route="WEBottom" depart="166" departSpeed="5"/>
    <vehicle id="t6_193" type="car" route="t6" depart="166" departSpeed="5"/>
    <vehicle id="t3_194" type="car" route="t3" depart="167" departSpeed="5"/>
    <vehicle id="t6_195" type="car" route="t6" depart="167" departSpeed="5"/>
    <vehicle id="t4_196" type="car" route="t4" depart="168" departSpeed="5"/>
    <vehicle id="t3_197" type="car" route="t3" depart="171" departSpeed="5"/>
    <vehicle id="t5_198" type="car" route="t5" depart="171" departSpeed="5"/>
    <vehicle id="WETop_199" type="car" route="WETop" depart="172" departSpeed="5"/>
    <vehicle id="NS_200" type="car" route="NS" depart="172" departSpeed="5"/>
    <vehicle id="t3_201" type="car" route="t3" depart="172" departSpeed="5"/>
    <vehicle id="SN_202" type="car" route="SN" depart="173" departSpeed="5"/>
    <vehicle id="NS_203" type="car" route="NS" depart="175" departSpeed="5"/>
    <vehicle id="t4_204" type="car" route="t4" depart="175" departSpeed="5"/>
    <vehicle id="WETop_205" type="car" route="WETop" depart="176" departSpeed="5"/>
    <vehicle id="EWBottom_206" type="car" route="EWBottom" depart="176" departSpeed="5"/>
    <vehicle id="WETop_207" type="car" route="WETop" depart="177" departSpeed="5"/>
    <vehicle id="WETop_208" type="car" route="WETop" depart="178" departSpeed="5"/>
    <vehicle id="t4_209" type="car" route="t4" depart="179" departSpeed="5"/>
    <vehicle id="WETop_210" type="car" route="WETop" depart="180" departSpeed="5"/>
    <vehicle id="EWBottom_211" type="car" route="EWBottom" depart="180" departSpeed="5"/>
    <vehicle id="NS_212" type="car" route="NS" depart="180" departSpeed="5"/>
    <vehicle id="t6_213" type="car" route="t6" depart="180" departSpeed="5"/>
    <vehicle id="WEBottom_214" type="car" route="WEBottom" depart="182" departSpeed="5"/>
    <vehicle id="t3_215" type="car" route="t3" depart="183" departSpeed="5"/>
    <vehicle id="t6_216" type="car" route="t6" depart="183" departSpeed="5"/>
    <vehicle id="WETop_217" type="car" route="WETop" depart="184" departSpeed="5"/>
    <vehicle id="EWBottom_218" type="car" route="EWBottom" depart="184" departSpeed="5"/>
    <vehicle id="EWBottom_219" type="car" route="EWBottom" depart="185" departSpeed="5"/>
    <vehicle id="t2_220" type="car" route="t2" depart="185" departSpeed="5"/>
    <vehicle id="WEBottom_221" type="car" route="WEBottom" depart="186" departSpeed="5"/>
    <vehicle id="t4_222" type="car" route="t4" depart="186" departSpeed="5"/>
    <vehicle id="t5_223" type="car" route="t5" depart="186" departSpeed="5"/>
    <vehicle id="EWTop_224" type="car" route="EWTop" depart="187" departSpeed="5"/>
    <vehicle id="WEBottom_225" type="car" route="WEBottom" depart="187" departSpeed="5"/>
    <vehicle id="EWBottom_226" type="car" route="EWBottom" depart="187" departSpeed="5"/>
    <vehicle id="EWBottom_227" type="car" route="EWBottom" depart="188" departSpeed="5"/>
    <vehicle id="NS_228" type="car" route="NS" depart="189" departSpeed="5"/>
    <vehicle id="t5_229" type="car" route="t5" depart="189" departSpeed="5"/>
    <vehicle id="t2_230" type="car" route="t2" depart="191" departSpeed="5"/>
    <vehicle id="t3_231" type="car" route="t3" depart="191" departSpeed="5"/>
    <vehicle id="EWBottom_232" type="car" route="EWBottom" depart="192" departSpeed="5"/>
    <vehicle id="SN_233" type="car" route="SN" depart="192" departSpeed="5"/>
    <vehicle id="WETop_234" type="car" route="WETop" depart="193" departSpeed="5"/>
    <vehicle id="EWTop_235" type="car" route="EWTop" depart="194" departSpeed="5"/>
    <vehicle id="NS_236" type="car" route="NS" depart="194" departSpeed="5"/>
    <vehicle id="t6_237" type="car" route="t6" depart="196" departSpeed="5"/>
    <vehicle id="NS_238" type="car" route="NS" depart="198" departSpeed="5"/>
    <vehicle id="t4_239" type="car" route="t4" depart="198" departSpeed="5"/>
    <vehicle id="EWBottom_240" type="car" route="EWBottom" depart="200" departSpeed="5"/>
    <vehicle id="t2_241" type="car" route="t2" depart="200" departSpeed="5"/>
    <vehicle id="t4_242" type="car" route="t4" depart="200" departSpeed="5"/>
    <vehicle id="EWBottom_243" type="car" route="EWBottom" depart="201" departSpeed="5"/>
    <vehicle id="t6_244" type="car" route="t6" depart="201" departSpeed="5"/>
    <vehicle id="NS_245" type="car" route="NS" depart="203" departSpeed="5"/>
    <vehicle id="t2_246" type="car" route="t2" depart="203" departSpeed="5"/>
    <vehicle id="t4_247" type="car" route="t4" depart="203" departSpeed="5"/>
    <vehicle id="WEBottom_248" type="car" route="WEBottom" depart="204" departSpeed="5"/>
    <vehicle id="t3_249" type="car" route="t3" depart="204" departSpeed="5"/>
    <vehicle id="WETop_250" type="car" route="WETop" depart="207" departSpeed="5"/>
    <vehicle id="t6_251" type="car" route="t6" depart="207" departSpeed="5"/>
    <vehicle id="EWTop_252" type="car" route="EWTop" depart="208" departSpeed="5"/>
    <vehicle id="EWTop_253" type="car" route="EWTop" depart="211" departSpeed="5"/>
    <vehicle id="NS_254" type="car" route="NS" depart="211" departSpeed="5"/>
    <vehicle id="EWTop_255" type="car" route="EWTop" depart="212" departSpeed="5"/>
    <vehicle id="t5_256" type="car" route="t5" depart="212" departSpeed="5"/>
    <vehicle id="WETop_257" type="car" route="WETop" depart="213" departSpeed="5"/>
    <vehicle id="NS_258" type="car" route="NS" depart="213" departSpeed="5"/>
    <vehicle id="SN_259" type="car" route="SN" depart="214" departSpeed="5"/>
    <vehicle id="t2_260" type="car" route="t2" depart="214" departSpeed="5"/>
    <vehicle id="t5_261" type="car" route="t5" depart="214" departSpeed="5"/>
    <vehicle id="EWBottom_262" type="car" route="EWBottom" depart="216" departSpeed="5"/>
    <vehicle id="WEBottom_263" type="car" route="WEBottom" depart="217" departSpeed="5"/>
    <vehicle id="EWBottom_264" type="car" route="EWBottom" depart="217" departSpeed="5"/>
    <vehicle id="WETop_265" type="car" route="WETop" depart="218" departSpeed="5"/>
    <vehicle id="t3_266" type="car" route="t3" depart="219" departSpeed="5"/>
    <vehicle id="WETop_267" type="car" route="WETop" depart="221" departSpeed="5"/>
    <vehicle id="t6_268" type="car" route="t6" depart="221" departSpeed="5"/>
    <vehicle id="t4_269" type="car" route="t4" depart="224" departSpeed="5"/>
    <vehicle id="t6_270" type="car" route="t6" depart="225" departSpeed="5"/>
    <vehicle id="WEBottom_271" type="car" route="WEBottom" depart="227" departSpeed="5"/>
    <vehicle id="NS_272" type="car" route="NS" depart="227" departSpeed="5"/>
    <vehicle id="t5_273" type="car" route="t5" depart="227" departSpeed="5"/>
    <vehicle id="WEBottom_274" type="car" route="WEBottom" depart="228" departSpeed="5"/>
    <vehicle id="WEBottom_275" type="car" route="WEBottom" depart="229" departSpeed="5"/>
    <vehicle id="t2_276" type="car" route="t2" depart="231" departSpeed="5"/>
    <vehicle id="t3_277" type="car" route="t3" depart="231" departSpeed="5"/>
    <vehicle id="WETop_278" type="car" route="WETop" depart="233" departSpeed="5"/>
    <vehicle id="t6_279" type="car" route="t6" depart="233" departSpeed="5"/>
    <vehicle id="t3_280" type="car" route="t3" depart="234" departSpeed="5"/>
    <vehicle id="WETop_281" type="car" route="WETop" depart="235" departSpeed="5"/>
    <vehicle id="t2_282" type="car" route="t2" depart="235" departSpeed="5"/>
    <vehicle id="t2_283" type="car" route="t2" depart="236" departSpeed="5"/>
    <vehicle id="EWTop_284" type="car" route="EWTop" depart="240" departSpeed="5"/>
    <vehicle id="EWBottom_285" type="car" route="EWBottom" depart="240" departSpeed="5"/>
    <vehicle id="t2_286" type="car" route="t2" depart="240" departSpeed="5"/>
    <vehicle id="EWTop_287" type="car" route="EWTop" depart="241" departSpeed="5"/>
    <vehicle id="WEBottom_288" type="car" route="WEBottom" depart="241" departSpeed="5"/>
    <vehicle id="EWTop_289" type="car" route="EWTop" depart="242" departSpeed="5"/>
    <vehicle id="t3_290" type="car" route="t3" depart="242" departSpeed="5"/>
    <vehicle id="t5_291" type="car" route="t5" depart="242" departSpeed="5"/>
    <vehicle id="EWBottom_292" type="car" route="EWBottom" depart="243" departSpeed="5"/>
    <vehicle id="WETop_293" type="car" route="WETop" depart="244" departSpeed="5"/>
    <vehicle id="WETop_294" type="car" route="WETop" depart="245" departSpeed="5"/>
    <vehicle id="EWTop_295" type="car" route="EWTop" depart="245" departSpeed="5"/>
    <vehicle id="t2_296" type="car" route="t2" depart="247" departSpeed="5"/>
    <vehicle id="t6_297" type="car" route="t6" depart="248" departSpeed="5"/>
    <vehicle id="t6_298" type="car" route="t6" depart="249" departSpeed="5"/>
    <vehicle id="t5_299" type="car" route="t5" depart="250" departSpeed="5"/>
    <vehicle id="EWTop_300" type="car" route="EWTop" depart="251" departSpeed="5"/>
    <vehicle id="EWBottom_301" type="car" route="EWBottom" depart="251" departSpeed="5"/>
    <vehicle id="t6_302" type="car" route="t6" depart="251" departSpeed="5"/>
    <vehicle id="NS_303" type="car" route="NS" depart="252" departSpeed="5"/>
    <vehicle id="t2_304" type="car" route="t2" depart="252" departSpeed="5"/>
    <vehicle id="SN_305" type="car" route="SN" depart="254" departSpeed="5"/>
    <vehicle id="t2_306" type="car" route="t2" depart="254" departSpeed="5"/>
    <vehicle id="EWTop_307" type="car" route="EWTop" depart="257" departSpeed="5"/>
    <vehicle id="t2_308" type="car" route="t2" depart="258" departSpeed="5"/>
    <vehicle id="EWBottom_309" type="car" route="EWBottom" depart="259" departSpeed="5"/>
    <vehicle id="EWBottom_310" type="car" route="EWBottom" depart="261" departSpeed="5"/>
    <vehicle id="NS_311" type="car" route="NS" depart="263" departSpeed="5"/>
    <vehicle id="t2_312" type="car" route="t2" depart="263" departSpeed="5"/>
    <vehicle id="t3_313" type="car" route="t3" depart="264" departSpeed="5"/>
    <vehicle id="SN_314" type="car" route="SN" depart="265" departSpeed="5"/>
    <vehicle id="EWBottom_315" type="car" route="EWBottom" depart="266" departSpeed="5"/>
    <vehicle id="EWTop_316" type="car" route="EWTop" depart="267" departSpeed="5"/>
    <vehicle id="WEBottom_317" type="car" route="WEBottom" depart="267" departSpeed="5"/>
    <vehicle id="EWTop_318" type="car" route="EWTop" depart="268" departSpeed="5"/>
    <vehicle id="t5_319" type="car" route="t5" depart="269" departSpeed="5"/>
    <vehicle id="NS_320" type="car" route="NS" depart="271" departSpeed="5"/>
    <vehicle id="t3_321" type="car" route="t3" depart="271" departSpeed="5"/>
    <vehicle id="EWTop_322" type="car" route="EWTop" depart="272" departSpeed="5"/>
    <vehicle id="t6_323" type="car" route="t6" depart="277" departSpeed="5"/>
    <vehicle id="SN_324" type="car" route="SN" depart="278" departSpeed="5"/>
    <vehicle id="t5_325" type="car" route="t5" depart="280" departSpeed="5"/>
    <vehicle id="WEBottom_326" type="car" route="WEBottom" depart="281" departSpeed="5"/>
    <vehicle id="t6_327" type="car" route="t6" depart="281" departSpeed="5"/>
    <vehicle id="t4_328" type="car" route="t4" depart="282" departSpeed="5"/>
    <vehicle id="t4_329" type="car" route="t4" depart="284" departSpeed="5"/>
    <vehicle id="t6_330" type="car" route="t6" depart="284" departSpeed="5"/>
    <vehicle id="WETop_331" type="car" route="WETop" depart="288" departSpeed="5"/>
    <vehicle id="t5_332" type="car" route="t5" depart="288" departSpeed="5"/>
    <vehicle id="t6_333" type="car" route="t6" depart="288" departSpeed="5"/>
    <vehicle id="WETop_334" type="car" route="WETop" depart="289" departSpeed="5"/>
    <vehicle id="t6_335" type="car" route="t6" depart="291" departSpeed="5"/>
    <vehicle id="SN_336" type="car" route="SN" depart="292" departSpeed="5"/>
    <vehicle id="t4_337" type="car" route="t4" depart="293" departSpeed="5"/>
    <vehicle id="WETop_338" type="car" route="WETop" depart="294" departSpeed="5"/>
    <vehicle id="EWBottom_339" type="car" route="EWBottom" depart="295" departSpeed="5"/>
    <vehicle id="WEBottom_340" type="car" route="WEBottom" depart="296" departSpeed="5"/>
    <vehicle id="NS_341" type="car" route="NS" depart="296" departSpeed="5"/>
    <vehicle id="SN_342" type="car" route="SN" depart="298" departSpeed="5"/>
    <vehicle id="NS_343" type="car" route="NS" depart="299" departSpeed="5"/>
    <vehicle id="t4_344" type="car" route="t4" depart="299" departSpeed="5"/>
    <vehicle id="WEBottom_345" type="car" route="WEBottom" depart="300" departSpeed="5"/>
    <vehicle id="EWBottom_346" type="car" route="EWBottom" depart="300" departSpeed="5"/>
    <vehicle id="t3_347" type="car" route="t3" depart="300" departSpeed="5"/>
    <vehicle id="WEBottom_348" type="car" route="WEBottom" depart="301" departSpeed="5"/>
    <vehicle id="t5_349" type="car" route="t5" depart="301" departSpeed="5"/>
    <vehicle id="SN_350" type="car" route="SN" depart="303" departSpeed="5"/>
    <vehicle id="t2_351" type="car" route="t2" depart="303" departSpeed="5"/>
    <vehicle id="t3_352" type="car" route="t3" depart="303" departSpeed="5"/>
    <vehicle id="EWBottom_353" type="car" route="EWBottom" depart="304" departSpeed="5"/>
    <vehicle id="t2_354" type="car" route="t2" depart="304" departSpeed="5"/>
    <vehicle id="t6_355" type="car" route="t6" depart="304" departSpeed="5"/>
    <vehicle id="SN_356" type="car" route="SN" depart="306" departSpeed="5"/>
    <vehicle id="t4_357" type="car" route="t4" depart="306" departSpeed="5"/>