<routes>
            <vType id="car" accel="1.0" decel="4.5" sigma="0.7" length="5" minGap="3" maxSpeed="15" guiShape="passenger"/>

            <route id="right" edges="1i 2o" />
            <route id="left" edges="2i 1o" />
            <route id="down" edges="4i 3o" />
            <route id="up" edges="3i 4o" />
    <vehicle id="left_0" type="car" route="left" depart="1" departSpeed="5"/>
    <vehicle id="down_1" type="car" route="down" depart="3" departSpeed="5"/>
    <vehicle id="right_2" type="car" route="right" depart="4" departSpeed="5"/>
    <vehicle id="up_3" type="car" route="up" depart="4" departSpeed="5"/>
    <vehicle id="right_4" type="car" route="right" depart="7" departSpeed="5"/>
    <vehicle id="down_5" type="car" route="down" depart="16" departSpeed="5"/>
    <vehicle id="down_6" type="car" route="down" depart="21" departSpeed="5"/>
    <vehicle id="left_7" type="car" route="left" depart="22" departSpeed="5"/>
    <vehicle id="down_8" type="car" route="down" depart="22" departSpeed="5"/>
    <vehicle id="left_9" type="car" route="left" depart="27" departSpeed="5"/>
    <vehicle id="up_10" type="car" route="up" depart="27" departSpeed="5"/>
    <vehicle id="right_11" type="car" route="right" depart="29" departSpeed="5"/>
    <vehicle id="down_12" type="car" route="down" depart="33" departSpeed="5"/>
    <vehicle id="right_13" type="car" route="right" depart="41" departSpeed="5"/>
    <vehicle id="right_14" type="car" route="right" depart="46" departSpeed="5"/>
    <vehicle id="down_15" type="car" route="down" depart="48" departSpeed="5"/>
    <vehicle id="up_16" type="car" route="up" depart="49" departSpeed="5"/>
    <vehicle id="left_17" type="car" route="left" depart="50" departSpeed="5"/>
    <vehicle id="left_18" type="car" route="left" depart="51" departSpeed="5"/>
    <vehicle id="left_19" type="car" route="left" depart="57" departSpeed="5"/>
    <vehicle id="up_20" type="car" route="up" depart="58" departSpeed="5"/>
    <vehicle id="down_21" type="car" route="down" depart="61" departSpeed="5"/>
    <vehicle id="right_22" type="car" route="right" depart="62" departSpeed="5"/>
    <vehicle id="down_23" type="car" route="down" depart="62" departSpeed="5"/>
    <vehicle id="up_24" type="car" route="up" depart="64" departSpeed="5"/>
    <vehicle id="right_25" type="car" route="right" depart="66" departSpeed="5"/>
    <vehicle id="right_26" type="car" route="right" depart="68" departSpeed="5"/>
    <vehicle id="left_27" type="car" route="left" depart="70" departSpeed="5"/>
    <vehicle id="down_28" type="car" route="down" depart="70" departSpeed="5"/>
    <vehicle id="left_29" type="car" route="left" depart="74" departSpeed="5"/>
    <vehicle id="down_30" type="car" route="down" depart="78" departSpeed="5"/>
    <vehicle id="up_31" type="car" route="up" depart="78" departSpeed="5"/>
    <vehicle id="left_32" type="car" route="left" depart="79" departSpeed="5"/>
    <vehicle id="down_33" type="car" route="down" depart="79" departSpeed="5"/>
    <vehicle id="right_34" type="car" route="right" depart="83" departSpeed="5"/>
    <vehicle id="left_35" type="car" route="left" depart="89" departSpeed="5"/>
    <vehicle id="left_36" type="car" route="left" depart="91" departSpeed="5"/>
    <vehicle id="down_37" type="car" route="down" depart="91" departSpeed="5"/>
    <vehicle id="up_38" type="car" route="up" depart="91" departSpeed="5"/>
    <vehicle id="left_39" type="car" route="left" depart="100" departSpeed="5"/>
    <vehicle id="right_40" type="car" route="right" depart="103" departSpeed="5"/>
    <vehicle id="left_41" type="car" route="left" depart="103" departSpeed="5"/>
    <vehicle id="up_42" type="car" route="up" depart="104" departSpeed="5"/>
    <vehicle id="up_43" type="car" route="up" depart="105" departSpeed="5"/>
    <vehicle id="up_44" type="car" route="up" depart="106" departSpeed="5"/>
    <vehicle id="down_45" type="car" route="down" depart="107" departSpeed="5"/>
    <vehicle id="right_46" type="car" route="right" depart="112" departSpeed="5"/>
    <vehicle id="up_47" type="car" route="up" depart="115" departSpeed="5"/>
    <vehicle id="right_48" type="car" route="right" depart="118" departSpeed="5"/>
    <vehicle id="left_49" type="car" route="left" depart="119" departSpeed="5"/>
    <vehicle id="down_50" type="car" route="down" depart="120" departSpeed="5"/>
    <vehicle id="left_51" type="car" route="left" depart="121" departSpeed="5"/>
    <vehicle id="up_52" type="car" route="up" depart="126" departSpeed="5"/>
    <vehicle id="down_53" type="car" route="down" depart="129" departSpeed="5"/>
    <vehicle id="up_54" type="car" route="up" depart="130" departSpeed="5"/>
    <vehicle id="down_55" type="car" route="down" depart="132" departSpeed="5"/>
    <vehicle id="up_56" type="car" route="up" depart="137" departSpeed="5"/>
    <vehicle id="right_57" type="car" route="right" depart="144" departSpeed="5"/>
    <vehicle id="right_58" type="car" route="right" depart="152" departSpeed="5"/>
    <vehicle id="left_59" type="car" route="left" depart="153" departSpeed="5"/>
    <vehicle id="up_60" type="car" route="up" depart="153" departSpeed="5"/>
    <vehicle id="down_61" type="car" route="down" depart="155" departSpeed="5"/>
    <vehicle id="down_62" type="car" route="down" depart="157" departSpeed="5"/>
    <vehicle id="down_63" type="car" route="down" depart="161" departSpeed="5"/>
    <vehicle id="up_64" type="car" route="up" depart="162" departSpeed="5"/>
    <vehicle id="left_65" type="car" route="left" depart="168" departSpeed="5"/>
    <vehicle id="down_66" type="car" route="down" depart="168" departSpeed="5"/>
    <vehicle id="down_67" type="car" route="down" depart="171" departSpeed="5"/>
    <vehicle id="right_68" type="car" route="right" depart="176" departSpeed="5"/>
    <vehicle id="up_69" type="car" route="up" depart="176" departSpeed="5"/>
    <vehicle id="right_70" type="car" route="right" depart="178" departSpeed="5"/>
    <vehicle id="left_71" type="car" route="left" depart="182" departSpeed="5"/>
    <vehicle id="right_72" type="car" route="right" depart="190" departSpeed="5"/>
    <vehicle id="left_73" type="car" route="left" depart="195" departSpeed="5"/>
    <vehicle id="right_74" type="car" route="right" depart="197" departSpeed="5"/>
    <vehicle id="left_75" type="car" route="left" depart="200" departSpeed="5"/>
    <vehicle id="up_76" type="car" route="up" depart="201" departSpeed="5"/>
    <vehicle id="up_77" type="car" route="up" depart="202" departSpeed="5"/>
    <vehicle id="right_78" type="car" route="right" depart="203" departSpeed="5"/>
    <vehicle id="right_79" type="car" route="right" depart="208" departSpeed="5"/>
    <vehicle id="down_80" type="car" route="down" depart="213" departSpeed="5"/>
    <vehicle id="up_81" type="car" route="up" depart="213" departSpeed="5"/>
    <vehicle id="left_82" type="car" route="left" depart="214" departSpeed="5"/>
    <vehicle id="down_83" type="car" route="down" depart="217" departSpeed="5"/>
    <vehicle id="right_84" type="car" route="right" depart="219" departSpeed="5"/>
    <vehicle id="down_85" type="car" route="down" depart="226" departSpeed="5"/>
    <vehicle id="right_86" type="car" route="right" depart="229" departSpeed="5"/>
    <vehicle id="right_87" type="car" route="right" depart="232" departSpeed="5"/>
    <vehicle id="down_88" type="car" route="down" depart="236" departSpeed="5"/>
    <vehicle id="down_89" type="car" route="down" depart="237" departSpeed="5"/>
    <vehicle id="right_90" type="car" route="right" depart="238" departSpeed="5"/>
    <vehicle id="up_91" type="car" route="up" depart="239" departSpeed="5"/>
    <vehicle id="down_92" type="car" route="down" depart="240" departSpeed="5"/>
    <vehicle id="left_93" type="car" route="left" depart="249" departSpeed="5"/>
    <vehicle id="down_94" type="car" route="down" depart="253" departSpeed="5"/>
    <vehicle id="right_95" type="car" route="right" depart="265" departSpeed="5"/>
    <vehicle id="right_96" type="car" route="right" depart="269" departSpeed="5"/>
    <vehicle id="left_97" type="car" route="left" depart="269" departSpeed="5"/>
    <vehicle id="up_98" type="car" route="up" depart="276" departSpeed="5"/>
    <vehicle id="right_99" type="car" route="right" depart="277" departSpeed="5"/>
    <vehicle id="down_100" type="car" route="down" depart="283" departSpeed="5"/>
    <vehicle id="right_101" type="car" route="right" depart="284" departSpeed="5"/>
    <vehicle id="right_102" type="car" route="right" depart="293" departSpeed="5"/>
    <vehicle id="right_103" type="car" route="right" depart="301" departSpeed="5"/>
    <vehicle id="right_104" type="car" route="right" depart="303" departSpeed="5"/>
    <vehicle id="left_105" type="car" route="left" depart="309" departSpeed="5"/>
    <vehicle id="down_106" type="car" route="down" depart="312" departSpeed="5"/>
    <vehicle id="up_107" type="car" route="up" depart="312" departSpeed="5"/>
    <vehicle id="up_108" type="car" route="up" depart="315" departSpeed="5"/>
    <vehicle id="left_109" type="car" route="left" depart="316" departSpeed="5"/>
    <vehicle id="left_110" type="car" route="left" depart="317" departSpeed="5"/>
    <vehicle id="up_111" type="car" route="up" depart="324" departSpeed="5"/>
    <vehicle id="up_112" type="car" route="up" depart="331" departSpeed="5"/>
    <vehicle id="right_113" type="car" route="right" depart="332" departSpeed="5"/>
    <vehicle id="left_114" type="car" route="left" depart="335" departSpeed="5"/>
    <vehicle id="up_115" type="car" route="up" depart="335" departSpeed="5"/>
    <vehicle id="right_116" type="car" route="right" depart="336" departSpeed="5"/>
    <vehicle id="right_117" type="car" route="right" depart="337" departSpeed="5"/>
    <vehicle id="down_118" type="car" route="down" depart="337" departSpeed="5"/>
    <vehicle id="right_119" type="car" route="right" depart="338" departSpeed="5"/>
    <vehicle id="down_120" type="car" route="down" depart="339" departSpeed="5"/>
    <vehicle id="left_121" type="car" route="left" depart="340" departSpeed="5"/>
    <vehicle id="up_122" type="car" route="up" depart="340" departSpeed="5"/>
    <vehicle id="up_123" type="car" route="up" depart="341" departSpeed="5"/>
    <vehicle id="right_124" type="car" route="right" depart="346" departSpeed="5"/>
    <vehicle id="left_125" type="car" route="left" depart="347" departSpeed="5"/>
    <vehicle id="right_126" type="car" route="right" depart="349" departSpeed="5"/>
    <vehicle id="left_127" type="car" route="left" depart="361" departSpeed="5"/>
    <vehicle id="left_128" type="car" route="left" depart="363" departSpeed="5"/>
    <vehicle id="left_129" type="car" route="left" depart="365" departSpeed="5"/>
    <vehicle id="left_130" type="car" route="left" depart="367" departSpeed="5"/>
    <vehicle id="left_131" type="car" route="left" depart="370" departSpeed="5"/>
    <vehicle id="right_132" type="car" route="right" depart="371" departSpeed="5"/>
    <vehicle id="down_133" type="car" route="down" depart="374" departSpeed="5"/>
    <vehicle id="down_134" type="car" route="down" depart="378" departSpeed="5"/>
    <vehicle id="right_135" type="car" route="right" depart="379" departSpeed="5"/>
    <vehicle id="up_136" type="car" route="up" depart="381" departSpeed="5"/>
    <vehicle id="right_137" type="car" route="right" depart="393" departSpeed="5"/>
    <vehicle id="up_138" type="car" route="up" depart="399" departSpeed="5"/>
    <vehicle id="down_139" type="car" route="down" depart="400" departSpeed="5"/>
    <vehicle id="down_140" type="car" route="down" depart="402" departSpeed="5"/>
    <vehicle id="up_141" type="car" route="up" depart="405" departSpeed="5"/>
    <vehicle id="left_142" type="car" route="left" depart="408" departSpeed="5"/>
    <vehicle id="down_143" type="car" route="down" depart="410" departSpeed="5"/>
    <vehicle id="up_144" type="car" route="up" depart="411" departSpeed="5"/>
    <vehicle id="left_145" type="car" route="left" depart="412" departSpeed="5"/>
    <vehicle id="right_146" type="car" route="right" depart="416" departSpeed="5"/>
    <vehicle id="right_147" type="car" route="right" depart="417" departSpeed="5"/>
    <vehicle id="down_148" type="car" route="down" depart="420" departSpeed="5"/>
    <vehicle id="right_149" type="car" route="right" depart="421" departSpeed="5"/>
    <vehicle id="right_150" type="car" route="right" depart="426" departSpeed="5"/>
    <vehicle id="down_151" type="car" route="down" depart="430" departSpeed="5"/>
    <vehicle id="down_152" type="car" route="down" depart="432" departSpeed="5"/>
    <vehicle id="left_153" type="car" route="left" depart="437" departSpeed="5"/>
    <vehicle id="left_154" type="car" route="left" depart="444" departSpeed="5"/>
    <vehicle id="right_155" type="car" route="right" depart="449" departSpeed="5"/>
    <vehicle id="left_156" type="car" route="left" depart="449" departSpeed="5"/>
    <vehicle id="down_157" type="car" route="down" depart="449" departSpeed="5"/>
    <vehicle id="right_158" type="car" route="right" depart="451" departSpeed="5"/>
    <vehicle id="right_159" type="car" route="right" depart="456" departSpeed="5"/>
    <vehicle id="right_160" type="car" route="right" depart="462" departSpeed="5"/>
    <vehicle id="down_161" type="car" route="down" depart="462" departSpeed="5"/>
    <vehicle id="up_162" type="car" route="up" depart="463" departSpeed="5"/>
    <vehicle id="left_163" type="car" route="left" depart="464" departSpeed="5"/>
    <vehicle id="right_164" type="car" route="right" depart="471" departSpeed="5"/>
    <vehicle id="left_165" type="car" route="left" depart="471" departSpeed="5"/>
    <vehicle id="right_166" type="car" route="right" depart="478" departSpeed="5"/>
    <vehicle id="right_167" type="car" route="right" depart="479" departSpeed="5"/>
    <vehicle id="right_168" type="car" route="right" depart="481" departSpeed="5"/>
    <vehicle id="left_169" type="car" route="left" depart="486" departSpeed="5"/>
    <vehicle id="left_170" type="car" route="left" depart="487" departSpeed="5"/>
    <vehicle id="right_171" type="car" route="right" depart="488" departSpeed="5"/>
    <vehicle id="right_172" type="car" route="right" depart="490" departSpeed="5"/>
    <vehicle id="left_173" type="car" route="left" depart="490" departSpeed="5"/>
    <vehicle id="up_174" type="car" route="up" depart="490" departSpeed="5"/>
    <vehicle id="down_175" type="car" route="down" depart="492" departSpeed="5"/>
    <vehicle id="right_176" type="car" route="right" depart="497" departSpeed="5"/>
    <vehicle id="down_177" type="car" route="down" depart="502" departSpeed="5"/>
    <vehicle id="down_178" type="car" route="down" depart="503" departSpeed="5"/>
    <vehicle id="left_179" type="car" route="left" depart="507" departSpeed="5"/>
    <vehicle id="left_180" type="car" route="left" depart="509" departSpeed="5"/>
    <vehicle id="right_181" type="car" route="right" depart="513" departSpeed="5"/>
    <vehicle id="up_182" type="car" route="up" depart="515" departSpeed="5"/>
    <vehicle id="right_183" type="car" route="right" depart="517" departSpeed="5"/>
    <vehicle id="down_184" type="car" route="down" depart="517" departSpeed="5"/>
    <vehicle id="up_185" type="car" route="up" depart="518" departSpeed="5"/>
    <vehicle id="right_186" type="car" route="right" depart="522" departSpeed="5"/>
    <vehicle id="down_187" type="car" route="down" depart="529" departSpeed="5"/>
    <vehicle id="right_188" type="car" route="right" depart="532" departSpeed="5"/>
    <vehicle id="up_189" type="car" route="up" depart="541" departSpeed="5"/>
    <vehicle id="down_190" type="car" route="down" depart="543" departSpeed="5"/>
    <vehicle id="right_191" type="car" route="right" depart="545" departSpeed="5"/>
    <vehicle id="left_192" type="car" route="left" depart="546" departSpeed="5"/>
    <vehicle id="down_193" type="car" route="down" depart="546" departSpeed="5"/>
    <vehicle id="left_194" type="car" route="left" depart="547" departSpeed="5"/>
    <vehicle id="right_195" type="car" route="right" depart="551" departSpeed="5"/>
    <vehicle id="down_196" type="car" route="down" depart="553" departSpeed="5"/>
    <vehicle id="up_197" type="car" route="up" depart="553" departSpeed="5"/>
    <vehicle id="right_198" type="car" route="right" depart="560" departSpeed="5"/>
    <vehicle id="down_199" type="car" route="down" depart="560" departSpeed="5"/>
    <vehicle id="up_200" type="car" route="up" depart="560" departSpeed="5"/>
    <vehicle id="up_201" type="car" route="up" depart="564" departSpeed="5"/>
    <vehicle id="left_202" type="car" route="left" depart="572" departSpeed="5"/>
    <vehicle id="down_203" type="car" route="down" depart="574" departSpeed="5"/>
    <vehicle id="up_204" type="car" route="up" depart="574" departSpeed="5"/>
    <vehicle id="down_205" type="car" route="down" depart="576" departSpeed="5"/>
    <vehicle id="up_206" type="car" route="up" depart="580" departSpeed="5"/>
    <vehicle id="right_207" type="car" route="right" depart="582" departSpeed="5"/>
    <vehicle id="left_208" type="car" route="left" depart="582" departSpeed="5"/>
    <vehicle id="right_209" type="car" route="right" depart="586" departSpeed="5"/>
    <vehicle id="left_210" type="car" route="left" depart="587" departSpeed="5"/>
    <vehicle id="down_211" type="car" route="down" depart="587" departSpeed="5"/>
    <vehicle id="left_212" type="car" route="left" depart="588" departSpeed="5"/>
    <vehicle id="left_213" type="car" route="left" depart="590" departSpeed="5"/>
    <vehicle id="right_214" type="car" route="right" depart="594" departSpeed="5"/>
    <vehicle id="left_215" type="car" route="left" depart="596" departSpeed="5"/>
    <vehicle id="right_216" type="car" route="right" depart="598" departSpeed="5"/>
    <vehicle id="down_217" type="car" route="down" depart="599" departSpeed="5"/>
    <vehicle id="right_218" type="car" route="right" depart="602" departSpeed="5"/>
    <vehicle id="down_219" type="car" route="down" depart="602" departSpeed="5"/>
    <vehicle id="left_220" type="car" route="left" depart="603" departSpeed="5"/>
    <vehicle id="right_221" type="car" route="right" depart="608" departSpeed="5"/>
    <vehicle id="up_222" type="car" route="up" depart="611" departSpeed="5"/>
    <vehicle id="right_223" type="car" route="right" depart="612" departSpeed="5"/>
    <vehicle id="up_224" type="car" route="up" depart="614" departSpeed="5"/>
    <vehicle id="right_225" type="car" route="right" depart="618" departSpeed="5"/>
    <vehicle id="left_226" type="car" route="left" depart="623" departSpeed="5"/>
    <vehicle id="right_227" type="car" route="right" depart="624" departSpeed="5"/>
    <vehicle id="right_228" type="car" route="right" depart="628" departSpeed="5"/>
    <vehicle id="left_229" type="car" route="left" depart="639" departSpeed="5"/>
    <vehicle id="down_230" type="car" route="down" depart="642" departSpeed="5"/>
    <vehicle id="right_231" type="car" route="right" depart="643" departSpeed="5"/>
    <vehicle id="down_232" type="car" route="down" depart="645" departSpeed="5"/>
    <vehicle id="up_233" type="car" route="up" depart="649" departSpeed="5"/>
    <vehicle id="up_234" type="car" route="up" depart="651" departSpeed="5"/>
    <vehicle id="down_235" type="car" route="down" depart="659" departSpeed="5"/>
    <vehicle id="right_236" type="car" route="right" depart="661" departSpeed="5"/>
    <vehicle id="right_237" type="car" route="right" depart="662" departSpeed="5"/>
    <vehicle id="right_238" type="car" route="right" depart="663" departSpeed="5"/>
    <vehicle id="up_239" type="car" route="up" depart="665" departSpeed="5"/>
    <vehicle id="left_240" type="car" route="left" depart="666" departSpeed="5"/>
    <vehicle id="right_241" type="car" route="right" depart="667" departSpeed="5"/>
    <vehicle id="left_242" type="car" route="left" depart="667" departSpeed="5"/>
    <vehicle id="up_243" type="car" route="up" depart="668" departSpeed="5"/>
    <vehicle id="right_244" type="car" route="right" depart="669" departSpeed="5"/>
    <vehicle id="down_245" type="car" route="down" depart="677" departSpeed="5"/>
    <vehicle id="down_246" type="car" route="down" depart="679" departSpeed="5"/>
    <vehicle id="right_247" type="car" route="right" depart="680" departSpeed="5"/>
    <vehicle id="down_248" type="car" route="down" depart="684" departSpeed="5"/>
    <vehicle id="up_249" type="car" route="up" depart="687" departSpeed="5"/>
    <vehicle id="right_250" type="car" route="right" depart="691" departSpeed="5"/>
    <vehicle id="down_251" type="car" route="down" depart="692" departSpeed="5"/>
    <vehicle id="down_252" type="car" route="down" depart="695" departSpeed="5"/>
    <vehicle id="down_253" type="car" route="down" depart="699" departSpeed="5"/>
    <vehicle id="up_254" type="car" route="up" depart="701" departSpeed="5"/>
    <vehicle id="up_255" type="car" route="up" depart="702" departSpeed="5"/>
    <vehicle id="up_256" type="car" route="up" depart="705" departSpeed="5"/>
    <vehicle id="right_257" type="car" route="right" depart="706" departSpeed="5"/>
    <vehicle id="up_258" type="car" route="up" depart="706" departSpeed="5"/>
    <vehicle id="up_259" type="car" route="up" depart="707" departSpeed="5"/>
    <vehicle id="up_260" type="car" route="up" depart="709" departSpeed="5"/>
    <vehicle id="right_261" type="car" route="right" depart="715" departSpeed="5"/>
    <vehicle id="down_262" type="car" route="down" depart="718" departSpeed="5"/>
    <vehicle id="right_263" type="car" route="right" depart="720" departSpeed="5"/>
    <vehicle id="up_264" type="car" route="up" depart="722" departSpeed="5"/>
    <vehicle id="up_265" type="car" route="up" depart="725" departSpeed="5"/>
    <vehicle id="down_266" type="car" route="down" depart="726" departSpeed="5"/>
    <vehicle id="right_267" type="car" route="right" depart="727" departSpeed="5"/>
    <vehicle id="up_268" type="car" route="up" depart="730" departSpeed="5"/>
    <vehicle id="left_269" type="car" route="left" depart="733" departSpeed="5"/>
    <vehicle id="down_270" type="car" route="down" depart="733" departSpeed="5"/>
    <vehicle id="up_271" type="car" route="up" depart="738" departSpeed="5"/>
    <vehicle id="right_272" type="car" route="right" depart="739" departSpeed="5"/>
    <vehicle id="left_273" type="car" route="left" depart="741" departSpeed="5"/>
    <vehicle id="down_274" type="car" route="down" depart="745" departSpeed="5"/>
    <vehicle id="right_275" type="car" route="right" depart="748" departSpeed="5"/>
    <vehicle id="left_276" type="car" route="left" depart="749" departSpeed="5"/>
    <vehicle id="right_277" type="car" route="right" depart="753" departSpeed="5"/>
    <vehicle id="down_278" type="car" route="down" depart="753" departSpeed="5"/>
    <vehicle id="left_279" type="car" route="left" depart="762" departSpeed="5"/>
    <vehicle id="left_280" type="car" route="left" depart="763" departSpeed="5"/>
    <vehicle id="up_281" type="car" route="up" depart="763" departSpeed="5"/>
    <vehicle id="up_282" type="car" route="up" depart="765" departSpeed="5"/>
    <vehicle id="right_283" type="car" route="right" depart="766" departSpeed="5"/>
    <vehicle id="left_284" type="car" route="left" depart="768" departSpeed="5"/>
    <vehicle id="up_285" type="car" route="up" depart="768" departSpeed="5"/>
    <vehicle id="up_286" type="car" route="up" depart="769" departSpeed="5"/>
    <vehicle id="down_287" type="car" route="down" depart="775" departSpeed="5"/>
    <vehicle id="right_288" type="car" route="right" depart="777" departSpeed="5"/>
    <vehicle id="left_289" type="car" route="left" depart="778" departSpeed="5"/>
    <vehicle id="down_290" type="car" route="down" depart="780" departSpeed="5"/>
    <vehicle id="up_291" type="car" route="up" depart="784" departSpeed="5"/>
    <vehicle id="down_292" type="car" route="down" depart="785" departSpeed="5"/>
    <vehicle id="down_293" type="car" route="down" depart="789" departSpeed="5"/>
    <vehicle id="right_294" type="car" route="right" depart="800" departSpeed="5"/>
    <vehicle id="down_295" type="car" route="down" depart="802" departSpeed="5"/>
    <vehicle id="down_296" type="car" route="down" depart="811" departSpeed="5"/>
    <vehicle id="down_297" type="car" route="down" depart="814" departSpeed="5"/>
    <vehicle id="up_298" type="car" route="up" depart="815" departSpeed="5"/>
    <vehicle id="up_299" type="car" route="up" depart="816" departSpeed="5"/>
    <vehicle id="right_300" type="car" route="right" depart="817" departSpeed="5"/>
    <vehicle id="down_301" type="car" route="down" depart="818" departSpeed="5"/>
    <vehicle id="left_302" type="car" route="left" depart="819" departSpeed="5"/>
    <vehicle id="up_303" type="car" route="up" depart="819" departSpeed="5"/>
    <vehicle id="down_304" type="car" route="down" depart="821" departSpeed="5"/>
    <vehicle id="left_305" type="car" route="left" depart="823" departSpeed="5"/>
    <vehicle id="up_306" type="car" route="up" depart="823" departSpeed="5"/>
    <vehicle id="down_307" type="car" route="down" depart="824" departSpeed="5"/>
    <vehicle id="right_308" type="car" route="right" depart="833" departSpeed="5"/>
    <vehicle id="right_309" type="car" route="right" depart="834" departSpeed="5"/>
    <vehicle id="right_310" type="car" route="right" depart="835" departSpeed="5"/>
    <vehicle id="down_311" type="car" route="down" depart="837" departSpeed="5"/>
    <vehicle id="up_312" type="car" route="up" depart="837" departSpeed="5"/>
    <vehicle id="down_313" type="car" route="down" depart="838" departSpeed="5"/>
    <vehicle id="right_314" type="car" route="right" depart="842" departSpeed="5"/>
    <vehicle id="down_315" type="car" route="down" depart="843" departSpeed="5"/>
    <vehicle id="left_316" type="car" route="left" depart="844" departSpeed="5"/>
    <vehicle id="left_317" type="car" route="left" depart="848" departSpeed="5"/>
    <vehicle id="up_318" type="car" route="up" depart="849" departSpeed="5"/>
    <vehicle id="down_319" type="car" route="down" depart="852" departSpeed="5"/>
    <vehicle id="left_320" type="car" route="left" depart="853" departSpeed="5"/>
    <vehicle id="down_321" type="car" route="down" depart="853" departSpeed="5"/>
    <vehicle id="right_322" type="car" route="right" depart="854" departSpeed="5"/>
    <vehicle id="down_323" type="car" route="down" depart="857" departSpeed="5"/>
    <vehicle id="up_324" type="car" route="up" depart="860" departSpeed="5"/>
    <vehicle id="up_325" type="car" route="up" depart="863" departSpeed="5"/>
    <vehicle id="down_326" type="car" route="down" depart="866" departSpeed="5"/>
    <vehicle id="right_327" type="car" route="right" depart="869" departSpeed="5"/>
    <vehicle id="right_328" type="car" route="right" depart="870" departSpeed="5"/>
    <vehicle id="up_329" type="car" route="up" depart="871" departSpeed="5"/>
    <vehicle id="up_330" type="car" route="up" depart="872" departSpeed="5"/>
    <vehicle id="right_331" type="car" route="right" depart="873" departSpeed="5"/>
    <vehicle id="left_332" type="car" route="left" depart="880" departSpeed="5"/>
    <vehicle id="left_333" type="car" route="left" depart="884" departSpeed="5"/>
    <vehicle id="left_334" type="car" route="left" depart="886" departSpeed="5"/>
    <vehicle id="left_335" type="car" route="left" depart="887" departSpeed="5"/>
    <vehicle id="down_336" type="car" route="down" depart="888" departSpeed="5"/>
    <vehicle id="up_337" type="car" route="up" depart="891" departSpeed="5"/>
    <vehicle id="right_338" type="car" route="right" depart="895" departSpeed="5"/>
    <vehicle id="down_339" type="car" route="down" depart="906" departSpeed="5"/>
    <vehicle id="up_340" type="car" route="up" depart="906" departSpeed="5"/>
    <vehicle id="left_341" type="car" route="left" depart="908" departSpeed="5"/>
    <vehicle id="right_342" type="car" route="right" depart="910" departSpeed="5"/>
    <vehicle id="up_343" type="car" route="up" depart="910" departSpeed="5"/>
    <vehicle id="up_344" type="car" route="up" depart="913" departSpeed="5"/>
    <vehicle id="left_345" type="car" route="left" depart="918" departSpeed="5"/>
    <vehicle id="down_346" type="car" route="down" depart="918" departSpeed="5"/>
    <vehicle id="right_347" type="car" route="right" depart="919" departSpeed="5"/>
    <vehicle id="right_348" type="car" route="right" depart="922" departSpeed="5"/>
    <vehicle id="left_349" type="car" route="left" depart="926" departSpeed="5"/>
    <vehicle id="down_350" type="car" route="down" depart="928" departSpeed="5"/>
    <vehicle id="right_351" type="car" route="right" depart="932" departSpeed="5"/>
    <vehicle id="right_352" type="car" route="right" depart="933" departSpeed="5"/>
    <vehicle id="left_353" type="car" route="left" depart="933" departSpeed="5"/>
    <vehicle id="down_354" type="car" route="down" depart="933" departSpeed="5"/>
    <vehicle id="left_355" type="car" route="left" depart="934" departSpeed="5"/>
    <vehicle id="down_356" type="car" route="down" depart="935" departSpeed="5"/>
    <vehicle id="left_357" type="car" route="left" depart="937" departSpeed="5"/>
    <vehicle id="up_358" type="car" route="up" depart="946" departSpeed="5"/>
    <vehicle id="right_359" type="car" route="right" depart="950" departSpeed="5"/>
    <vehicle id="left_360" type="car" route="left" depart="953" departSpeed="5"/>
    <vehicle id="down_361" type="car" route="down" depart="953" departSpeed="5"/>
    <vehicle id="right_362" type="car" route="right" depart="957" departSpeed="5"/>
    <vehicle id="left_363" type="car" route="left" depart="960" departSpeed="5"/>
    <vehicle id="down_364" type="car" route="down" depart="965" departSpeed="5"/>