<routes>
                               <vType id="car" accel="2.0" decel="8.5" sigma="0.7" length="5" minGap="3" maxSpeed="30" guiShape="passenger"/>

                               <route id="WETop" edges="5i 1i 2o" />
                               <route id="EWTop" edges="2i 1o 5o" />
                               <route id="NS" edges="4i 3o 8i" />
                               <route id="SN" edges="8o 3i 4o" />
                               <route id="WEBottom" edges="7o 11o" />
                               <route id="EWBottom" edges="11i 7i" />

                               <route id="t2" edges="8o 7i" />
                               <route id="t3" edges="4i 1o 6i" />
                               <route id="t4" edges="7o 3i 2o" />
                               <route id="t5" edges="6o 1i 4o" />
                               <route id="t6" edges="5i 1i 3o 11o" />
                               
    <vehicle id="EWBottom_0" type="car" route="EWBottom" depart="2" departSpeed="15"/>
    <vehicle id="t4_1" type="car" route="t4" depart="6" departSpeed="15"/>
    <vehicle id="NS_2" type="car" route="NS" depart="7" departSpeed="15"/>
    <vehicle id="EWBottom_3" type="car" route="EWBottom" depart="8" departSpeed="15"/>
    <vehicle id="SN_4" type="car" route="SN" depart="9" departSpeed="15"/>
    <vehicle id="t6_5" type="car" route="t6" depart="10" departSpeed="15"/>
    <vehicle id="WEBottom_6" type="car" route="WEBottom" depart="11" departSpeed="15"/>
    <vehicle id="t5_7" type="car" route="t5" depart="11" departSpeed="15"/>
    <vehicle id="EWTop_8" type="car" route="EWTop" depart="12" departSpeed="15"/>
    <vehicle id="t3_9" type="car" route="t3" depart="14" departSpeed="15"/>
    <vehicle id="t4_10" type="car" route="t4" depart="14" departSpeed="15"/>
    <vehicle id="SN_11" type="car" route="SN" depart="16" departSpeed="15"/>
    <vehicle id="t4_12" type="car" route="t4" depart="19" departSpeed="15"/>
    <vehicle id="SN_13" type="car" route="SN" depart="23" departSpeed="15"/>
    <vehicle id="t6_14" type="car" route="t6" depart="26" departSpeed="15"/>
    <vehicle id="SN_15" type="car" route="SN" depart="29" departSpeed="15"/>
    <vehicle id="t6_16" type="car" route="t6" depart="30" departSpeed="15"/>
    <vehicle id="WEBottom_17" type="car" route="WEBottom" depart="31" departSpeed="15"/>
    <vehicle id="t4_18" type="car" route="t4" depart="31" departSpeed="15"/>
    <vehicle id="SN_19" type="car" route="SN" depart="34" departSpeed="15"/>
    <vehicle id="EWTop_20" type="car" route="EWTop" depart="45" departSpeed="15"/>
    <vehicle id="SN_21" type="car" route="SN" depart="45" departSpeed="15"/>
    <vehicle id="NS_22" type="car" route="NS" depart="46" departSpeed="15"/>
    <vehicle id="WETop_23" type="car" route="WETop" depart="51" departSpeed="15"/>
    <vehicle id="WEBottom_24" type="car" route="WEBottom" depart="51" departSpeed="15"/>
    <vehicle id="t4_25" type="car" route="t4" depart="51" departSpeed="15"/>
    <vehicle id="WEBottom_26" type="car" route="WEBottom" depart="52" departSpeed="15"/>
    <vehicle id="WETop_27" type="car" route="WETop" depart="53" departSpeed="15"/>
    <vehicle id="SN_28" type="car" route="SN" depart="55" departSpeed="15"/>
    <vehicle id="WETop_29" type="car" route="WETop" depart="57" departSpeed="15"/>
    <vehicle id="t4_30" type="car" route="t4" depart="58" departSpeed="15"/>
    <vehicle id="t6_31" type="car" route="t6" depart="58" departSpeed="15"/>
    <vehicle id="t5_32" type="car" route="t5" depart="59" departSpeed="15"/>
    <vehicle id="EWTop_33" type="car" route="EWTop" depart="61" departSpeed="15"/>
    <vehicle id="t6_34" type="car" route="t6" depart="62" departSpeed="15"/>
    <vehicle id="EWTop_35" type="car" route="EWTop" depart="64" departSpeed="15"/>
    <vehicle id="WETop_36" type="car" route="WETop" depart="69" departSpeed="15"/>
    <vehicle id="t2_37" type="car" route="t2" depart="73" departSpeed="15"/>
    <vehicle id="t3_38" type="car" route="t3" depart="73" departSpeed="15"/>
    <vehicle id="EWTop_39" type="car" route="EWTop" depart="74" departSpeed="15"/>
    <vehicle id="SN_40" type="car" route="SN" depart="76" departSpeed="15"/>
    <vehicle id="NS_41" type="car" route="NS" depart="80" departSpeed="15"/>
    <vehicle id="EWBottom_42" type="car" route="EWBottom" depart="82" departSpeed="15"/>
    <vehicle id="EWTop_43" type="car" route="EWTop" depart="83" departSpeed="15"/>
    <vehicle id="EWBottom_44" type="car" route="EWBottom" depart="83" departSpeed="15"/>
    <vehicle id="t5_45" type="car" route="t5" depart="83" departSpeed="15"/>
    <vehicle id="WEBottom_46" type="car" route="WEBottom" depart="84" departSpeed="15"/>
    <vehicle id="t5_47" type="car" route="t5" depart="87" departSpeed="15"/>
    <vehicle id="t4_48" type="car" route="t4" depart="88" departSpeed="15"/>
    <vehicle id="t4_49" type="car" route="t4" depart="91" departSpeed="15"/>
    <vehicle id="t6_50" type="car" route="t6" depart="91" departSpeed="15"/>
    <vehicle id="t2_51" type="car" route="t2" depart="93" departSpeed="15"/>
    <vehicle id="t5_52" type="car" route="t5" depart="93" departSpeed="15"/>
    <vehicle id="WEBottom_53" type="car" route="WEBottom" depart="95" departSpeed="15"/>
    <vehicle id="EWTop_54" type="car" route="EWTop" depart="98" departSpeed="15"/>
    <vehicle id="EWBottom_55" type="car" route="EWBottom" depart="98" departSpeed="15"/>
    <vehicle id="SN_56" type="car" route="SN" depart="99" departSpeed="15"/>
    <vehicle id="SN_57" type="car" route="SN" depart="107" departSpeed="15"/>
    <vehicle id="t2_58" type="car" route="t2" depart="113" departSpeed="15"/>
    <vehicle id="EWTop_59" type="car" route="EWTop" depart="115" departSpeed="15"/>
    <vehicle id="WETop_60" type="car" route="WETop" depart="116" departSpeed="15"/>
    <vehicle id="t6_61" type="car" route="t6" depart="117" departSpeed="15"/>
    <vehicle id="WEBottom_62" type="car" route="WEBottom" depart="119" departSpeed="15"/>
    <vehicle id="SN_63" type="car" route="SN" depart="119" departSpeed="15"/>
    <vehicle id="SN_64" type="car" route="SN" depart="124" departSpeed="15"/>
    <vehicle id="SN_65" type="car" route="SN" depart="126" departSpeed="15"/>
    <vehicle id="t3_66" type="car" route="t3" depart="129" departSpeed="15"/>
    <vehicle id="WETop_67" type="car" route="WETop" depart="130" departSpeed="15"/>
    <vehicle id="WETop_68" type="car" route="WETop" depart="131" departSpeed="15"/>
    <vehicle id="t5_69" type="car" route="t5" depart="135" departSpeed="15"/>
    <vehicle id="t2_70" type="car" route="t2" depart="136" departSpeed="15"/>
    <vehicle id="t6_71" type="car" route="t6" depart="138" departSpeed="15"/>
    <vehicle id="t6_72" type="car" route="t6" depart="141" departSpeed="15"/>
    <vehicle id="t4_73" type="car" route="t4" depart="144" departSpeed="15"/>
    <vehicle id="EWBottom_74" type="car" route="EWBottom" depart="145" departSpeed="15"/>
    <vehicle id="SN_75" type="car" route="SN" depart="148" departSpeed="15"/>
    <vehicle id="t2_76" type="car" route="t2" depart="148" departSpeed="15"/>
    <vehicle id="t2_77" type="car" route="t2" depart="149" departSpeed="15"/>
    <vehicle id="SN_78" type="car" route="SN" depart="150" departSpeed="15"/>
    <vehicle id="EWTop_79" type="car" route="EWTop" depart="154" departSpeed="15"/>
    <vehicle id="t3_80" type="car" route="t3" depart="155" departSpeed="15"/>
    <vehicle id="t3_81" type="car" route="t3" depart="156" departSpeed="15"/>
    <vehicle id="t6_82" type="car" route="t6" depart="158" departSpeed="15"/>
    <vehicle id="EWBottom_83" type="car" route="EWBottom" depart="159" departSpeed="15"/>
    <vehicle id="t6_84" type="car" route="t6" depart="159" departSpeed="15"/>
    <vehicle id="EWBottom_85" type="car" route="EWBottom" depart="166" departSpeed="15"/>
    <vehicle id="t3_86" type="car" route="t3" depart="167" departSpeed="15"/>
    <vehicle id="t3_87" type="car" route="t3" depart="171" departSpeed="15"/>
    <vehicle id="WETop_88" type="car" route="WETop" depart="182" departSpeed="15"/>
    <vehicle id="EWBottom_89" type="car" route="EWBottom" depart="182" departSpeed="15"/>
    <vehicle id="t4_90" type="car" route="t4" depart="182" departSpeed="15"/>
    <vehicle id="t2_91" type="car" route="t2" depart="185" departSpeed="15"/>
    <vehicle id="t5_92" type="car" route="t5" depart="187" departSpeed="15"/>
    <vehicle id="EWTop_93" type="car" route="EWTop" depart="188" departSpeed="15"/>
    <vehicle id="NS_94" type="car" route="NS" depart="188" departSpeed="15"/>
    <vehicle id="t3_95" type="car" route="t3" depart="188" departSpeed="15"/>
    <vehicle id="WETop_96" type="car" route="WETop" depart="189" departSpeed="15"/>
    <vehicle id="WEBottom_97" type="car" route="WEBottom" depart="191" departSpeed="15"/>
    <vehicle id="WETop_98" type="car" route="WETop" depart="196" departSpeed="15"/>
    <vehicle id="EWTop_99" type="car" route="EWTop" depart="196" departSpeed="15"/>
    <vehicle id="t5_100" type="car" route="t5" depart="198" departSpeed="15"/>
    <vehicle id="t2_101" type="car" route="t2" depart="203" departSpeed="15"/>
    <vehicle id="t5_102" type="car" route="t5" depart="203" departSpeed="15"/>
    <vehicle id="t5_103" type="car" route="t5" depart="205" departSpeed="15"/>
    <vehicle id="t5_104" type="car" route="t5" depart="207" departSpeed="15"/>
    <vehicle id="t5_105" type="car" route="t5" depart="208" departSpeed="15"/>
    <vehicle id="NS_106" type="car" route="NS" depart="211" departSpeed="15"/>
    <vehicle id="EWBottom_107" type="car" route="EWBottom" depart="213" departSpeed="15"/>
    <vehicle id="t2_108" type="car" route="t2" depart="217" departSpeed="15"/>
    <vehicle id="WETop_109" type="car" route="WETop" depart="219" departSpeed="15"/>
    <vehicle id="EWBottom_110" type="car" route="EWBottom" depart="219" departSpeed="15"/>
    <vehicle id="NS_111" type="car" route="NS" depart="221" departSpeed="15"/>
    <vehicle id="t4_112" type="car" route="t4" depart="223" departSpeed="15"/>
    <vehicle id="t2_113" type="car" route="t2" depart="227" departSpeed="15"/>
    <vehicle id="t4_114" type="car" route="t4" depart="227" departSpeed="15"/>
    <vehicle id="t5_115" type="car" route="t5" depart="227" departSpeed="15"/>
    <vehicle id="WEBottom_116" type="car" route="WEBottom" depart="232" departSpeed="15"/>
    <vehicle id="WETop_117" type="car" route="WETop" depart="235" departSpeed="15"/>
    <vehicle id="t5_118" type="car" route="t5" depart="239" departSpeed="15"/>
    <vehicle id="EWBottom_119" type="car" route="EWBottom" depart="240" departSpeed="15"/>
    <vehicle id="NS_120" type="car" route="NS" depart="240" departSpeed="15"/>
    <vehicle id="t2_121" type="car" route="t2" depart="242" departSpeed="15"/>
    <vehicle id="t6_122" type="car" route="t6" depart="242" departSpeed="15"/>
    <vehicle id="EWBottom_123" type="car" route="EWBottom" depart="246" departSpeed="15"/>
    <vehicle id="t3_124" type="car" route="t3" depart="246" departSpeed="15"/>
    <vehicle id="EWTop_125" type="car" route="EWTop" depart="252" departSpeed="15"/>
    <vehicle id="t3_126" type="car" route="t3" depart="253" departSpeed="15"/>
    <vehicle id="t3_127" type="car" route="t3" depart="254" departSpeed="15"/>
    <vehicle id="WETop_128" type="car" route="WETop" depart="256" departSpeed="15"/>
    <vehicle id="t4_129" type="car" route="t4" depart="256" departSpeed="15"/>
    <vehicle id="WETop_130" type="car" route="WETop" depart="257" departSpeed="15"/>
    <vehicle id="t2_131" type="car" route="t2" depart="258" departSpeed="15"/>
    <vehicle id="WETop_132" type="car" route="WETop" depart="259" departSpeed="15"/>
    <vehicle id="EWBottom_133" type="car" route="EWBottom" depart="259" departSpeed="15"/>
    <vehicle id="t4_134" type="car" route="t4" depart="260" departSpeed="15"/>
    <vehicle id="WEBottom_135" type="car" route="WEBottom" depart="264" departSpeed="15"/>
    <vehicle id="t3_136" type="car" route="t3" depart="264" departSpeed="15"/>
    <vehicle id="SN_137" type="car" route="SN" depart="267" departSpeed="15"/>
    <vehicle id="t2_138" type="car" route="t2" depart="270" departSpeed="15"/>
    <vehicle id="t5_139" type="car" route="t5" depart="271" departSpeed="15"/>
    <vehicle id="t5_140" type="car" route="t5" depart="272" departSpeed="15"/>
    <vehicle id="EWBottom_141" type="car" route="EWBottom" depart="273" departSpeed="15"/>
    <vehicle id="t2_142" type="car" route="t2" depart="275" departSpeed="15"/>
    <vehicle id="t4_143" type="car" route="t4" depart="276" departSpeed="15"/>
    <vehicle id="t5_144" type="car" route="t5" depart="277" departSpeed="15"/>
    <vehicle id="t3_145" type="car" route="t3" depart="278" departSpeed="15"/>
    <vehicle id="t6_146" type="car" route="t6" depart="278" departSpeed="15"/>
    <vehicle id="t4_147" type="car" route="t4" depart="280" departSpeed="15"/>
    <vehicle id="SN_148" type="car" route="SN" depart="282" departSpeed="15"/>
    <vehicle id="t5_149" type="car" route="t5" depart="284" departSpeed="15"/>
    <vehicle id="t5_150" type="car" route="t5" depart="285" departSpeed="15"/>
    <vehicle id="t6_151" type="car" route="t6" depart="287" departSpeed="15"/>
    <vehicle id="t3_152" type="car" route="t3" depart="288" departSpeed="15"/>
    <vehicle id="WETop_153" type="car" route="WETop" depart="289" departSpeed="15"/>
    <vehicle id="WEBottom_154" type="car" route="WEBottom" depart="290" departSpeed="15"/>
    <vehicle id="t3_155" type="car" route="t3" depart="294" departSpeed="15"/>
    <vehicle id="t3_156" type="car" route="t3" depart="295" departSpeed="15"/>
    <vehicle id="t2_157" type="car" route="t2" depart="296" departSpeed="15"/>
    <vehicle id="t5_158" type="car" route="t5" depart="296" departSpeed="15"/>
    <vehicle id="WEBottom_159" type="car" route="WEBottom" depart="297" departSpeed="15"/>
    <vehicle id="t6_160" type="car" route="t6" depart="305" departSpeed="15"/>
    <vehicle id="SN_161" type="car" route="SN" depart="307" departSpeed="15"/>
    <vehicle id="t6_162" type="car" route="t6" depart="308" departSpeed="15"/>
    <vehicle id="NS_163" type="car" route="NS" depart="310" departSpeed="15"/>
    <vehicle id="WETop_164" type="car" route="WETop" depart="313" departSpeed="15"/>
    <vehicle id="WEBottom_165" type="car" route="WEBottom" depart="314" departSpeed="15"/>
    <vehicle id="EWTop_166" type="car" route="EWTop" depart="315" departSpeed="15"/>
    <vehicle id="WEBottom_167" type="car" route="WEBottom" depart="315" departSpeed="15"/>
    <vehicle id="EWBottom_168" type="car" route="EWBottom" depart="315" departSpeed="15"/>
    <vehicle id="EWTop_169" type="car" route="EWTop" depart="317" departSpeed="15"/>
    <vehicle id="t3_170" type="car" route="t3" depart="317" departSpeed="15"/>
    <vehicle id="WEBottom_171" type="car" route="WEBottom" depart="320" departSpeed="15"/>
    <vehicle id="t5_172" type="car" route="t5" depart="322" departSpeed="15"/>
    <vehicle id="t2_173" type="car" route="t2" depart="325" departSpeed="15"/>
    <vehicle id="t4_174" type="car" route="t4" depart="325" departSpeed="15"/>
    <vehicle id="SN_175" type="car" route="SN" depart="326" departSpeed="15"/>
    <vehicle id="WETop_176" type="car" route="WETop" depart="327" departSpeed="15"/>
    <vehicle id="NS_177" type="car" route="NS" depart="327" departSpeed="15"/>
    <vehicle id="SN_178" type="car" route="SN" depart="331" departSpeed="15"/>
    <vehicle id="EWTop_179" type="car" route="EWTop" depart="332" departSpeed="15"/>
    <vehicle id="t6_180" type="car" route="t6" depart="332" departSpeed="15"/>
    <vehicle id="t2_181" type="car" route="t2" depart="334" departSpeed="15"/>
    <vehicle id="SN_182" type="car" route="SN" depart="337" departSpeed="15"/>
    <vehicle id="WEBottom_183" type="car" route="WEBottom" depart="338" departSpeed="15"/>
    <vehicle id="t6_184" type="car" route="t6" depart="338" departSpeed="15"/>
    <vehicle id="t2_185" type="car" route="t2" depart="341" departSpeed="15"/>
    <vehicle id="t6_186" type="car" route="t6" depart="343" departSpeed="15"/>
    <vehicle id="EWTop_187" type="car" route="EWTop" depart="344" departSpeed="15"/>
    <vehicle id="WEBottom_188" type="car" route="WEBottom" depart="344" departSpeed="15"/>
    <vehicle id="EWBottom_189" type="car" route="EWBottom" depart="346" departSpeed="15"/>
    <vehicle id="WEBottom_190" type="car" route="WEBottom" depart="348" departSpeed="15"/>
    <vehicle id="t5_191" type="car" route="t5" depart="349" departSpeed="15"/>
    <vehicle id="WEBottom_192" type="car" route="WEBottom" depart="350" departSpeed="15"/>
    <vehicle id="NS_193" type="car" route="NS" depart="351" departSpeed="15"/>
    <vehicle id="WETop_194" type="car" route="WETop" depart="352" departSpeed="15"/>
    <vehicle id="t4_195" type="car" route="t4" depart="353" departSpeed="15"/>
    <vehicle id="EWBottom_196" type="car" route="EWBottom" depart="354" departSpeed="15"/>
    <vehicle id="t6_197" type="car" route="t6" depart="354" departSpeed="15"/>
    <vehicle id="SN_198" type="car" route="SN" depart="355" departSpeed="15"/>
    <vehicle id="WETop_199" type="car" route="WETop" depart="358" departSpeed="15"/>
    <vehicle id="t2_200" type="car" route="t2" depart="360" departSpeed="15"/>
    <vehicle id="SN_201" type="car" route="SN" depart="363" departSpeed="15"/>
    <vehicle id="WEBottom_202" type="car" route="WEBottom" depart="364" departSpeed="15"/>
    <vehicle id="EWBottom_203" type="car" route="EWBottom" depart="364" departSpeed="15"/>
    <vehicle id="SN_204" type="car" route="SN" depart="369" departSpeed="15"/>
    <vehicle id="t2_205" type="car" route="t2" depart="369" departSpeed="15"/>
    <vehicle id="EWTop_206" type="car" route="EWTop" depart="373" departSpeed="15"/>
    <vehicle id="t3_207" type="car" route="t3" depart="373" departSpeed="15"/>
    <vehicle id="SN_208" type="car" route="SN" depart="374" departSpeed="15"/>
    <vehicle id="EWTop_209" type="car" route="EWTop" depart="375" departSpeed="15"/>
    <vehicle id="t3_210" type="car" route="t3" depart="375" departSpeed="15"/>
    <vehicle id="t6_211" type="car" route="t6" depart="375" departSpeed="15"/>
    <vehicle id="NS_212" type="car" route="NS" depart="378" departSpeed="15"/>
    <vehicle id="WEBottom_213" type="car" route="WEBottom" depart="380" departSpeed="15"/>
    <vehicle id="t3_214" type="car" route="t3" depart="382" departSpeed="15"/>
    <vehicle id="t4_215" type="car" route="t4" depart="384" departSpeed="15"/>
    <vehicle id="WETop_216" type="car" route="WETop" depart="386" departSpeed="15"/>
    <vehicle id="NS_217" type="car" route="NS" depart="388" departSpeed="15"/>
    <vehicle id="t5_218" type="car" route="t5" depart="388" departSpeed="15"/>
    <vehicle id="t6_219" type="car" route="t6" depart="391" departSpeed="15"/>
    <vehicle id="SN_220" type="car" route="SN" depart="393" departSpeed="15"/>
    <vehicle id="t2_221" type="car" route="t2" depart="396" departSpeed="15"/>
    <vehicle id="t6_222" type="car" route="t6" depart="396" departSpeed="15"/>
    <vehicle id="t3_223" type="car" route="t3" depart="399" departSpeed="15"/>
    <vehicle id="t4_224" type="car" route="t4" depart="401" departSpeed="15"/>
    <vehicle id="WETop_225" type="car" route="WETop" depart="402" departSpeed="15"/>
    <vehicle id="t5_226" type="car" route="t5" depart="404" departSpeed="15"/>
    <vehicle id="t3_227" type="car" route="t3" depart="405" departSpeed="15"/>
    <vehicle id="t2_228" type="car" route="t2" depart="407" departSpeed="15"/>
    <vehicle id="t6_229" type="car" route="t6" depart="410" departSpeed="15"/>
    <vehicle id="NS_230" type="car" route="NS" depart="411" departSpeed="15"/>
    <vehicle id="t2_231" type="car" route="t2" depart="411" departSpeed="15"/>
    <vehicle id="NS_232" type="car" route="NS" depart="412" departSpeed="15"/>
    <vehicle id="WETop_233" type="car" route="WETop" depart="413" departSpeed="15"/>
    <vehicle id="t2_234" type="car" route="t2" depart="413" departSpeed="15"/>
    <vehicle id="WEBottom_235" type="car" route="WEBottom" depart="417" departSpeed="15"/>
    <vehicle id="EWBottom_236" type="car" route="EWBottom" depart="417" departSpeed="15"/>
    <vehicle id="NS_237" type="car" route="NS" depart="417" departSpeed="15"/>
    <vehicle id="SN_238" type="car" route="SN" depart="419" departSpeed="15"/>
    <vehicle id="t4_239" type="car" route="t4" depart="421" departSpeed="15"/>
    <vehicle id="t4_240" type="car" route="t4" depart="426" departSpeed="15"/>
    <vehicle id="t4_241" type="car" route="t4" depart="427" departSpeed="15"/>
    <vehicle id="NS_242" type="car" route="NS" depart="428" departSpeed="15"/>
    <vehicle id="WEBottom_243" type="car" route="WEBottom" depart="434" departSpeed="15"/>
    <vehicle id="t2_244" type="car" route="t2" depart="435" departSpeed="15"/>
    <vehicle id="WETop_245" type="car" route="WETop" depart="438" departSpeed="15"/>
    <vehicle id="WEBottom_246" type="car" route="WEBottom" depart="439" departSpeed="15"/>
    <vehicle id="t2_247" type="car" route="t2" depart="439" departSpeed="15"/>
    <vehicle id="EWBottom_248" type="car" route="EWBottom" depart="440" departSpeed="15"/>
    <vehicle id="t5_249" type="car" route="t5" depart="441" departSpeed="15"/>
    <vehicle id="EWTop_250" type="car" route="EWTop" depart="447" departSpeed="15"/>
    <vehicle id="t2_251" type="car" route="t2" depart="447" departSpeed="15"/>
    <vehicle id="WETop_252" type="car" route="WETop" depart="448" departSpeed="15"/>
    <vehicle id="NS_253" type="car" route="NS" depart="454" departSpeed="15"/>
    <vehicle id="EWBottom_254" type="car" route="EWBottom" depart="457" departSpeed="15"/>
    <vehicle id="t2_255" type="car" route="t2" depart="457" departSpeed="15"/>
    <vehicle id="t3_256" type="car" route="t3" depart="459" departSpeed="15"/>
    <vehicle id="NS_257" type="car" route="NS" depart="461" departSpeed="15"/>
    <vehicle id="t3_258" type="car" route="t3" depart="461" departSpeed="15"/>
    <vehicle id="t5_259" type="car" route="t5" depart="462" departSpeed="15"/>
    <vehicle id="t4_260" type="car" route="t4" depart="468" departSpeed="15"/>
    <vehicle id="t4_261" type="car" route="t4" depart="469" departSpeed="15"/>
    <vehicle id="t5_262" type="car" route="t5" depart="471" departSpeed="15"/>
    <vehicle id="WETop_263" type="car" route="WETop" depart="472" departSpeed="15"/>
    <vehicle id="SN_264" type="car" route="SN" depart="472" departSpeed="15"/>
    <vehicle id="t2_265" type="car" route="t2" depart="476" departSpeed="15"/>
    <vehicle id="NS_266" type="car" route="NS" depart="477" departSpeed="15"/>
    <vehicle id="t3_267" type="car" route="t3" depart="478" departSpeed="15"/>
    <vehicle id="t5_268" type="car" route="t5" depart="478" departSpeed="15"/>
    <vehicle id="t2_269" type="car" route="t2" depart="479" departSpeed="15"/>
    <vehicle id="EWTop_270" type="car" route="EWTop" depart="480" departSpeed="15"/>
    <vehicle id="WEBottom_271" type="car" route="WEBottom" depart="480" departSpeed="15"/>
    <vehicle id="t2_272" type="car" route="t2" depart="480" departSpeed="15"/>
    <vehicle id="t3_273" type="car" route="t3" depart="480" departSpeed="15"/>
    <vehicle id="NS_274" type="car" route="NS" depart="483" departSpeed="15"/>
    <vehicle id="t3_275" type="car" route="t3" depart="483" departSpeed="15"/>
    <vehicle id="t6_276" type="car" route="t6" depart="484" departSpeed="15"/>
    <vehicle id="WEBottom_277" type="car" route="WEBottom" depart="485" departSpeed="15"/>
    <vehicle id="t6_278" type="car" route="t6" depart="489" departSpeed="15"/>
    <vehicle id="t3_279" type="car" route="t3" depart="492" departSpeed="15"/>
    <vehicle id="WETop_280" type="car" route="WETop" depart="493" departSpeed="15"/>
    <vehicle id="NS_281" type="car" route="NS" depart="493" departSpeed="15"/>
    <vehicle id="t3_282" type="car" route="t3" depart="493" departSpeed="15"/>
    <vehicle id="EWTop_283" type="car" route="EWTop" depart="495" departSpeed="15"/>
    <vehicle id="t6_284" type="car" route="t6" depart="497" departSpeed="15"/>
    <vehicle id="SN_285" type="car" route="SN" depart="498" departSpeed="15"/>
    <vehicle id="EWBottom_286" type="car" route="EWBottom" depart="499" departSpeed="15"/>
    <vehicle id="t4_287" type="car" route="t4" depart="502" departSpeed="15"/>
    <vehicle id="t2_288" type="car" route="t2" depart="503" departSpeed="15"/>
    <vehicle id="WEBottom_289" type="car" route="WEBottom" depart="506" departSpeed="15"/>
    <vehicle id="t2_290" type="car" route="t2" depart="506" departSpeed="15"/>
    <vehicle id="WEBottom_291" type="car" route="WEBottom" depart="507" departSpeed="15"/>
    <vehicle id="WETop_292" type="car" route="WETop" depart="508" departSpeed="15"/>
    <vehicle id="EWTop_293" type="car" route="EWTop" depart="508" departSpeed="15"/>
    <vehicle id="SN_294" type="car" route="SN" depart="508" departSpeed="15"/>
    <vehicle id="EWTop_295" type="car" route="EWTop" depart="509" departSpeed="15"/>
    <vehicle id="WETop_296" type="car" route="WETop" depart="510" departSpeed="15"/>
    <vehicle id="t2_297" type="car" route="t2" depart="510" departSpeed="15"/>
    <vehicle id="WETop_298" type="car" route="WETop" depart="514" departSpeed="15"/>
    <vehicle id="t3_299" type="car" route="t3" depart="516" departSpeed="15"/>
    <vehicle id="WEBottom_300" type="car" route="WEBottom" depart="522" departSpeed="15"/>
    <vehicle id="EWTop_301" type="car" route="EWTop" depart="527" departSpeed="15"/>
    <vehicle id="WETop_302" type="car" route="WETop" depart="529" departSpeed="15"/>
    <vehicle id="NS_303" type="car" route="NS" depart="529" departSpeed="15"/>
    <vehicle id="t3_304" type="car" route="t3" depart="529" departSpeed="15"/>
    <vehicle id="EWTop_305" type="car" route="EWTop" depart="533" departSpeed="15"/>
    <vehicle id="WETop_306" type="car" route="WETop" depart="535" departSpeed="15"/>
    <vehicle id="EWTop_307" type="car" route="EWTop" depart="547" departSpeed="15"/>
    <vehicle id="EWTop_308" type="car" route="EWTop" depart="549" departSpeed="15"/>
    <vehicle id="NS_309" type="car" route="NS" depart="551" departSpeed="15"/>
    <vehicle id="EWBottom_310" type="car" route="EWBottom" depart="552" departSpeed="15"/>
    <vehicle id="SN_311" type="car" route="SN" depart="556" departSpeed="15"/>
    <vehicle id="NS_312" type="car" route="NS" depart="558" departSpeed="15"/>
    <vehicle id="EWTop_313" type="car" route="EWTop" depart="559" departSpeed="15"/>
    <vehicle id="t5_314" type="car" route="t5" depart="560" departSpeed="15"/>
    <vehicle id="SN_315" type="car" route="SN" depart="562" departSpeed="15"/>
    <vehicle id="SN_316" type="car" route="SN" depart="563" departSpeed="15"/>
    <vehicle id="t6_317" type="car" route="t6" depart="563" departSpeed="15"/>
    <vehicle id="t5_318" type="car" route="t5" depart="565" departSpeed="15"/>
    <vehicle id="t6_319" type="car" route="t6" depart="566" departSpeed="15"/>
    <vehicle id="t6_320" type="car" route="t6" depart="567" departSpeed="15"/>
    <vehicle id="t2_321" type="car" route="t2" depart="569" departSpeed="15"/>
    <vehicle id="t4_322" type="car" route="t4" depart="571" departSpeed="15"/>
    <vehicle id="EWBottom_323" type="car" route="EWBottom" depart="572" departSpeed="15"/>
    <vehicle id="t5_324" type="car" route="t5" depart="572" departSpeed="15"/>
    <vehicle id="EWTop_325" type="car" route="EWTop" depart="578" departSpeed="15"/>
    <vehicle id="NS_326" type="car" route="NS" depart="578" departSpeed="15"/>
    <vehicle id="t6_327" type="car" route="t6" depart="578" departSpeed="15"/>
    <vehicle id="EWBottom_328" type="car" route="EWBottom" depart="579" departSpeed="15"/>
    <vehicle id="t2_329" type="car" route="t2" depart="581" departSpeed="15"/>
    <vehicle id="SN_330" type="car" route="SN" depart="586" departSpeed="15"/>
    <vehicle id="t3_331" type="car" route="t3" depart="586" departSpeed="15"/>
    <vehicle id="t2_332" type="car" route="t2" depart="588" departSpeed="15"/>
    <vehicle id="WETop_333" type="car" route="WETop" depart="591" departSpeed="15"/>
    <vehicle id="EWTop_334" type="car" route="EWTop" depart="591" departSpeed="15"/>
    <vehicle id="EWBottom_335" type="car" route="EWBottom" depart="592" departSpeed="15"/>
    <vehicle id="NS_336" type="car" route="NS" depart="592" departSpeed="15"/>
    <vehicle id="t3_337" type="car" route="t3" depart="593" departSpeed="15"/>
    <vehicle id="t4_338" type="car" route="t4" depart="593" departSpeed="15"/>
    <vehicle id="EWTop_339" type="car" route="EWTop" depart="594" departSpeed="15"/>
    <vehicle id="t2_340" type="car" route="t2" depart="595" departSpeed="15"/>
    <vehicle id="WEBottom_341" type="car" route="WEBottom" depart="597" departSpeed="15"/>
    <vehicle id="t4_342" type="car" route="t4" depart="597" departSpeed="15"/>
    <vehicle id="t6_343" type="car" route="t6" depart="599" departSpeed="15"/>
    <vehicle id="SN_344" type="car" route="SN" depart="602" departSpeed="15"/>
    <vehicle id="t3_345" type="car" route="t3" depart="602" departSpeed="15"/>
    <vehicle id="WEBottom_346" type="car" route="WEBottom" depart="603" departSpeed="15"/>
    <vehicle id="WEBottom_347" type="car" route="WEBottom" depart="604" departSpeed="15"/>
    <vehicle id="NS_348" type="car" route="NS" depart="605" departSpeed="15"/>
    <vehicle id="SN_349" type="car" route="SN" depart="607" departSpeed="15"/>
    <vehicle id="t6_350" type="car" route="t6" depart="608" departSpeed="15"/>
    <vehicle id="t5_351" type="car" route="t5" depart="609" departSpeed="15"/>
    <vehicle id="t2_352" type="car" route="t2" depart="611" departSpeed="15"/>
    <vehicle id="t5_353" type="car" route="t5" depart="613" departSpeed="15"/>
    <vehicle id="NS_354" type="car" route="NS" depart="614" departSpeed="15"/>
    <vehicle id="WEBottom_355" type="car" route="WEBottom" depart="616" departSpeed="15"/>