<routes>
                               <vType id="car" accel="1.0" decel="4.5" sigma="0.7" length="5" minGap="3" maxSpeed="15" guiShape="passenger"/>

                               <route id="WETop" edges="5i 1i 2o" />
                               <route id="EWTop" edges="2i 1o 5o" />
                               <route id="NS" edges="4i 3o 8i" />
                               <route id="SN" edges="8o 3i 4o" />
                               <route id="WEBottom" edges="9o 7o 11o" />
                               <route id="EWBottom" edges="11i 7i 9i" />

                               <route id="t1" edges="6o 1i 3o 11o" />
                               <route id="t2" edges="8o 7i 10i" />
                               <route id="t3" edges="4i 1o 6i" />
                               <route id="t4" edges="10o 7o 11o" />

                               <route id="t5" edges="9o 7o 8i" />
                               <route id="t6" edges="9o 10i" />
                               <route id="t7" edges="6o 5o" />
                               <route id="t8" edges="4i 3o 11o" />
                               <route id="t9" edges="9o 7o 3i 1o 6i" />
                               
    <vehicle id="t1_0" type="car" route="t1" depart="0" departSpeed="5"/>
    <vehicle id="t7_1" type="car" route="t7" depart="0" departSpeed="5"/>
    <vehicle id="WETop_2" type="car" route="WETop" depart="1" departSpeed="5"/>
    <vehicle id="t9_3" type="car" route="t9" depart="2" departSpeed="5"/>
    <vehicle id="t6_4" type="car" route="t6" depart="3" departSpeed="5"/>
    <vehicle id="t8_5" type="car" route="t8" depart="4" departSpeed="5"/>
    <vehicle id="SN_6" type="car" route="SN" depart="5" departSpeed="5"/>
    <vehicle id="t7_7" type="car" route="t7" depart="5" departSpeed="5"/>
    <vehicle id="EWBottom_8" type="car" route="EWBottom" depart="6" departSpeed="5"/>
    <vehicle id="t1_9" type="car" route="t1" depart="7" departSpeed="5"/>
    <vehicle id="t4_10" type="car" route="t4" depart="8" departSpeed="5"/>
    <vehicle id="t5_11" type="car" route="t5" depart="8" departSpeed="5"/>
    <vehicle id="t6_12" type="car" route="t6" depart="8" departSpeed="5"/>
    <vehicle id="t4_13" type="car" route="t4" depart="11" departSpeed="5"/>
    <vehicle id="t5_14" type="car" route="t5" depart="11" departSpeed="5"/>
    <vehicle id="WETop_15" type="car" route="WETop" depart="12" departSpeed="5"/>
    <vehicle id="NS_16" type="car" route="NS" depart="12" departSpeed="5"/>
    <vehicle id="t3_17" type="car" route="t3" depart="13" departSpeed="5"/>
    <vehicle id="EWTop_18" type="car" route="EWTop" depart="14" departSpeed="5"/>
    <vehicle id="t1_19" type="car" route="t1" depart="14" departSpeed="5"/>
    <vehicle id="t2_20" type="car" route="t2" depart="16" departSpeed="5"/>
    <vehicle id="EWTop_21" type="car" route="EWTop" depart="17" departSpeed="5"/>
    <vehicle id="t4_22" type="car" route="t4" depart="17" departSpeed="5"/>
    <vehicle id="t5_23" type="car" route="t5" depart="17" departSpeed="5"/>
    <vehicle id="t4_24" type="car" route="t4" depart="18" departSpeed="5"/>
    <vehicle id="t5_25" type="car" route="t5" depart="18" departSpeed="5"/>
    <vehicle id="t4_26" type="car" route="t4" depart="20" departSpeed="5"/>
    <vehicle id="t5_27" type="car" route="t5" depart="20" departSpeed="5"/>
    <vehicle id="t8_28" type="car" route="t8" depart="20" departSpeed="5"/>
    <vehicle id="WEBottom_29" type="car" route="WEBottom" depart="21" departSpeed="5"/>
    <vehicle id="t1_30" type="car" route="t1" depart="21" departSpeed="5"/>
    <vehicle id="SN_31" type="car" route="SN" depart="22" departSpeed="5"/>
    <vehicle id="t1_32" type="car" route="t1" depart="23" departSpeed="5"/>
    <vehicle id="t6_33" type="car" route="t6" depart="23" departSpeed="5"/>
    <vehicle id="t4_34" type="car" route="t4" depart="25" departSpeed="5"/>
    <vehicle id="t5_35" type="car" route="t5" depart="25" departSpeed="5"/>
    <vehicle id="t7_36" type="car" route="t7" depart="26" departSpeed="5"/>
    <vehicle id="t7_37" type="car" route="t7" depart="27" departSpeed="5"/>
    <vehicle id="t8_38" type="car" route="t8" depart="27" departSpeed="5"/>
    <vehicle id="t7_39" type="car" route="t7" depart="28" departSpeed="5"/>
    <vehicle id="t8_40" type="car" route="t8" depart="28" departSpeed="5"/>
    <vehicle id="t2_41" type="car" route="t2" depart="29" departSpeed="5"/>
    <vehicle id="t6_42" type="car" route="t6" depart="29" departSpeed="5"/>
    <vehicle id="EWTop_43" type="car" route="EWTop" depart="30" departSpeed="5"/>
    <vehicle id="EWBottom_44" type="car" route="EWBottom" depart="31" departSpeed="5"/>
    <vehicle id="NS_45" type="car" route="NS" depart="31" departSpeed="5"/>
    <vehicle id="SN_46" type="car" route="SN" depart="31" departSpeed="5"/>
    <vehicle id="t4_47" type="car" route="t4" depart="32" departSpeed="5"/>
    <vehicle id="t5_48" type="car" route="t5" depart="32" departSpeed="5"/>
    <vehicle id="SN_49" type="car" route="SN" depart="33" departSpeed="5"/>
    <vehicle id="t6_50" type="car" route="t6" depart="33" departSpeed="5"/>
    <vehicle id="EWTop_51" type="car" route="EWTop" depart="34" departSpeed="5"/>
    <vehicle id="EWBottom_52" type="car" route="EWBottom" depart="34" departSpeed="5"/>
    <vehicle id="WEBottom_53" type="car" route="WEBottom" depart="35" departSpeed="5"/>
    <vehicle id="t2_54" type="car" route="t2" depart="35" departSpeed="5"/>
    <vehicle id="EWBottom_55" type="car" route="EWBottom" depart="36" departSpeed="5"/>
    <vehicle id="t4_56" type="car" route="t4" depart="37" departSpeed="5"/>
    <vehicle id="t5_57" type="car" route="t5" depart="37" departSpeed="5"/>
    <vehicle id="SN_58" type="car" route="SN" depart="38" departSpeed="5"/>
    <vehicle id="t7_59" type="car" route="t7" depart="38" departSpeed="5"/>
    <vehicle id="WETop_60" type="car" route="WETop" depart="39" departSpeed="5"/>
    <vehicle id="NS_61" type="car" route="NS" depart="39" departSpeed="5"/>
    <vehicle id="NS_62" type="car" route="NS" depart="40" departSpeed="5"/>
    <vehicle id="t6_63" type="car" route="t6" depart="40" departSpeed="5"/>
    <vehicle id="t2_64" type="car" route="t2" depart="41" departSpeed="5"/>
    <vehicle id="EWTop_65" type="car" route="EWTop" depart="42" departSpeed="5"/>
    <vehicle id="NS_66" type="car" route="NS" depart="42" departSpeed="5"/>
    <vehicle id="t9_67" type="car" route="t9" depart="42" departSpeed="5"/>
    <vehicle id="t6_68" type="car" route="t6" depart="43" departSpeed="5"/>
    <vehicle id="t8_69" type="car" route="t8" depart="43" departSpeed="5"/>
    <vehicle id="WEBottom_70" type="car" route="WEBottom" depart="46" departSpeed="5"/>
    <vehicle id="t3_71" type="car" route="t3" depart="46" departSpeed="5"/>
    <vehicle id="WEBottom_72" type="car" route="WEBottom" depart="47" departSpeed="5"/>
    <vehicle id="t6_73" type="car" route="t6" depart="47" departSpeed="5"/>
    <vehicle id="EWTop_74" type="car" route="EWTop" depart="49" departSpeed="5"/>
    <vehicle id="t2_75" type="car" route="t2" depart="49" departSpeed="5"/>
    <vehicle id="WETop_76" type="car" route="WETop" depart="50" departSpeed="5"/>
    <vehicle id="t2_77" type="car" route="t2" depart="51" departSpeed="5"/>
    <vehicle id="EWTop_78" type="car" route="EWTop" depart="52" departSpeed="5"/>
    <vehicle id="t3_79" type="car" route="t3" depart="52" departSpeed="5"/>
    <vehicle id="t6_80" type="car" route="t6" depart="52" departSpeed="5"/>
    <vehicle id="t1_81" type="car" route="t1" depart="53" departSpeed="5"/>
    <vehicle id="NS_82" type="car" route="NS" depart="54" departSpeed="5"/>
    <vehicle id="t6_83" type="car" route="t6" depart="54" departSpeed="5"/>
    <vehicle id="WETop_84" type="car" route="WETop" depart="55" departSpeed="5"/>
    <vehicle id="NS_85" type="car" route="NS" depart="55" departSpeed="5"/>
    <vehicle id="t8_86" type="car" route="t8" depart="55" departSpeed="5"/>
    <vehicle id="WETop_87" type="car" route="WETop" depart="56" departSpeed="5"/>
    <vehicle id="WEBottom_88" type="car" route="WEBottom" depart="56" departSpeed="5"/>
    <vehicle id="EWBottom_89" type="car" route="EWBottom" depart="56" departSpeed="5"/>
    <vehicle id="t6_90" type="car" route="t6" depart="56" departSpeed="5"/>
    <vehicle id="WEBottom_91" type="car" route="WEBottom" depart="57" departSpeed="5"/>
    <vehicle id="t6_92" type="car" route="t6" depart="57" departSpeed="5"/>
    <vehicle id="t7_93" type="car" route="t7" depart="57" departSpeed="5"/>
    <vehicle id="t1_94" type="car" route="t1" depart="58" departSpeed="5"/>
    <vehicle id="t7_95" type="car" route="t7" depart="58" departSpeed="5"/>
    <vehicle id="t8_96" type="car" route="t8" depart="58" departSpeed="5"/>
    <vehicle id="NS_97" type="car" route="NS" depart="59" departSpeed="5"/>
    <vehicle id="t3_98" type="car" route="t3" depart="59" departSpeed="5"/>
    <vehicle id="t4_99" type="car" route="t4" depart="60" departSpeed="5"/>
    <vehicle id="t5_100" type="car" route="t5" depart="60" departSpeed="5"/>
    <vehicle id="t6_101" type="car" route="t6" depart="61" departSpeed="5"/>
    <vehicle id="NS_102" type="car" route="NS" depart="63" departSpeed="5"/>
    <vehicle id="t7_103" type="car" route="t7" depart="63" departSpeed="5"/>
    <vehicle id="t6_104" type="car" route="t6" depart="64" departSpeed="5"/>
    <vehicle id="t4_105" type="car" route="t4" depart="65" departSpeed="5"/>
    <vehicle id="t5_106" type="car" route="t5" depart="65" departSpeed="5"/>
    <vehicle id="t6_107" type="car" route="t6" depart="65" departSpeed="5"/>
    <vehicle id="t6_108" type="car" route="t6" depart="65" departSpeed="5"/>
    <vehicle id="EWBottom_109" type="car" route="EWBottom" depart="66" departSpeed="5"/>
    <vehicle id="t6_110" type="car" route="t6" depart="66" departSpeed="5"/>
    <vehicle id="SN_111" type="car" route="SN" depart="67" departSpeed="5"/>
    <vehicle id="WEBottom_112" type="car" route="WEBottom" depart="68" departSpeed="5"/>
    <vehicle id="SN_113" type="car" route="SN" depart="68" departSpeed="5"/>
    <vehicle id="WEBottom_114" type="car" route="WEBottom" depart="69" departSpeed="5"/>
    <vehicle id="WEBottom_115" type="car" route="WEBottom" depart="70" departSpeed="5"/>
    <vehicle id="t4_116" type="car" route="t4" depart="70" departSpeed="5"/>
    <vehicle id="t5_117" type="car" route="t5" depart="70" departSpeed="5"/>
    <vehicle id="t1_118" type="car" route="t1" depart="76" departSpeed="5"/>
    <vehicle id="EWBottom_119" type="car" route="EWBottom" depart="77" departSpeed="5"/>
    <vehicle id="t6_120" type="car" route="t6" depart="77" departSpeed="5"/>
    <vehicle id="WEBottom_121" type="car" route="WEBottom" depart="80" departSpeed="5"/>
    <vehicle id="NS_122" type="car" route="NS" depart="81" departSpeed="5"/>
    <vehicle id="SN_123" type="car" route="SN" depart="81" departSpeed="5"/>
    <vehicle id="t1_124" type="car" route="t1" depart="81" departSpeed="5"/>
    <vehicle id="EWBottom_125" type="car" route="EWBottom" depart="82" departSpeed="5"/>
    <vehicle id="t4_126" type="car" route="t4" depart="82" departSpeed="5"/>
    <vehicle id="t5_127" type="car" route="t5" depart="82" departSpeed="5"/>
    <vehicle id="t1_128" type="car" route="t1" depart="83" departSpeed="5"/>
    <vehicle id="WEBottom_129" type="car" route="WEBottom" depart="84" departSpeed="5"/>
    <vehicle id="t6_130" type="car" route="t6" depart="84" departSpeed="5"/>
    <vehicle id="t8_131" type="car" route="t8" depart="85" departSpeed="5"/>
    <vehicle id="t2_132" type="car" route="t2" depart="86" departSpeed="5"/>
    <vehicle id="t4_133" type="car" route="t4" depart="86" departSpeed="5"/>
    <vehicle id="t5_134" type="car" route="t5" depart="86" departSpeed="5"/>
    <vehicle id="t8_135" type="car" route="t8" depart="86" departSpeed="5"/>
    <vehicle id="t8_136" type="car" route="t8" depart="87" departSpeed="5"/>
    <vehicle id="SN_137" type="car" route="SN" depart="89" departSpeed="5"/>
    <vehicle id="WETop_138" type="car" route="WETop" depart="90" departSpeed="5"/>
    <vehicle id="WEBottom_139" type="car" route="WEBottom" depart="90" departSpeed="5"/>
    <vehicle id="EWBottom_140" type="car" route="EWBottom" depart="91" departSpeed="5"/>
    <vehicle id="NS_141" type="car" route="NS" depart="91" departSpeed="5"/>
    <vehicle id="t2_142" type="car" route="t2" depart="92" departSpeed="5"/>
    <vehicle id="WETop_143" type="car" route="WETop" depart="93" departSpeed="5"/>
    <vehicle id="t3_144" type="car" route="t3" depart="93" departSpeed="5"/>
    <vehicle id="t4_145" type="car" route="t4" depart="93" departSpeed="5"/>
    <vehicle id="t5_146" type="car" route="t5" depart="93" departSpeed="5"/>
    <vehicle id="t8_147" type="car" route="t8" depart="94" departSpeed="5"/>
    <vehicle id="t2_148" type="car" route="t2" depart="95" departSpeed="5"/>
    <vehicle id="t3_149" type="car" route="t3" depart="96" departSpeed="5"/>
    <vehicle id="t9_150" type="car" route="t9" depart="97" departSpeed="5"/>
    <vehicle id="t6_151" type="car" route="t6" depart="98" departSpeed="5"/>
    <vehicle id="t6_152" type="car" route="t6" depart="98" departSpeed="5"/>
    <vehicle id="t9_153" type="car" route="t9" depart="98" departSpeed="5"/>
    <vehicle id="t3_154" type="car" route="t3" depart="102" departSpeed="5"/>
    <vehicle id="t6_155" type="car" route="t6" depart="102" departSpeed="5"/>
    <vehicle id="t2_156" type="car" route="t2" depart="103" departSpeed="5"/>
    <vehicle id="t4_157" type="car" route="t4" depart="103" departSpeed="5"/>
    <vehicle id="t5_158" type="car" route="t5" depart="103" departSpeed="5"/>
    <vehicle id="t8_159" type="car" route="t8" depart="103" departSpeed="5"/>
    <vehicle id="t6_160" type="car" route="t6" depart="104" departSpeed="5"/>
    <vehicle id="EWTop_161" type="car" route="EWTop" depart="105" departSpeed="5"/>
    <vehicle id="WETop_162" type="car" route="WETop" depart="106" departSpeed="5"/>
    <vehicle id="t6_163" type="car" route="t6" depart="106" departSpeed="5"/>
    <vehicle id="t8_164" type="car" route="t8" depart="106" departSpeed="5"/>
    <vehicle id="SN_165" type="car" route="SN" depart="107" departSpeed="5"/>
    <vehicle id="t9_166" type="car" route="t9" depart="108" departSpeed="5"/>
    <vehicle id="t1_167" type="car" route="t1" depart="109" departSpeed="5"/>
    <vehicle id="t7_168" type="car" route="t7" depart="109" departSpeed="5"/>
    <vehicle id="WEBottom_169" type="car" route="WEBottom" depart="111" departSpeed="5"/>
    <vehicle id="t3_170" type="car" route="t3" depart="111" departSpeed="5"/>
    <vehicle id="NS_171" type="car" route="NS" depart="113" departSpeed="5"/>
    <vehicle id="t6_172" type="car" route="t6" depart="113" departSpeed="5"/>
    <vehicle id="t9_173" type="car" route="t9" depart="113" departSpeed="5"/>
    <vehicle id="t2_174" type="car" route="t2" depart="115" departSpeed="5"/>
    <vehicle id="t6_175" type="car" route="t6" depart="116" departSpeed="5"/>
    <vehicle id="t7_176" type="car" route="t7" depart="116" departSpeed="5"/>
    <vehicle id="t9_177" type="car" route="t9" depart="116" departSpeed="5"/>
    <vehicle id="t2_178" type="car" route="t2" depart="118" departSpeed="5"/>
    <vehicle id="WEBottom_179" type="car" route="WEBottom" depart="120" departSpeed="5"/>
    <vehicle id="t1_180" type="car" route="t1" depart="120" departSpeed="5"/>
    <vehicle id="t6_181" type="car" route="t6" depart="120" departSpeed="5"/>
    <vehicle id="t8_182" type="car" route="t8" depart="120" departSpeed="5"/>
    <vehicle id="t9_183" type="car" route="t9" depart="121" departSpeed="5"/>
    <vehicle id="EWBottom_184" type="car" route="EWBottom" depart="122" departSpeed="5"/>
    <vehicle id="t1_185" type="car" route="t1" depart="123" departSpeed="5"/>
    <vehicle id="t3_186" type="car" route="t3" depart="124" departSpeed="5"/>
    <vehicle id="EWBottom_187" type="car" route="EWBottom" depart="125" departSpeed="5"/>
    <vehicle id="t3_188" type="car" route="t3" depart="125" departSpeed="5"/>
    <vehicle id="t6_189" type="car" route="t6" depart="125" departSpeed="5"/>
    <vehicle id="WETop_190" type="car" route="WETop" depart="127" departSpeed="5"/>
    <vehicle id="t6_191" type="car" route="t6" depart="129" departSpeed="5"/>
    <vehicle id="SN_192" type="car" route="SN" depart="130" departSpeed="5"/>
    <vehicle id="t6_193" type="car" route="t6" depart="130" departSpeed="5"/>
    <vehicle id="WEBottom_194" type="car" route="WEBottom" depart="131" departSpeed="5"/>
    <vehicle id="t1_195" type="car" route="t1" depart="131" departSpeed="5"/>
    <vehicle id="t6_196" type="car" route="t6" depart="131" departSpeed="5"/>
    <vehicle id="t4_197" type="car" route="t4" depart="132" departSpeed="5"/>
    <vehicle id="t5_198" type="car" route="t5" depart="132" departSpeed="5"/>
    <vehicle id="EWBottom_199" type="car" route="EWBottom" depart="133" departSpeed="5"/>
    <vehicle id="SN_200" type="car" route="SN" depart="133" departSpeed="5"/>
    <vehicle id="t1_201" type="car" route="t1" depart="133" departSpeed="5"/>
    <vehicle id="t4_202" type="car" route="t4" depart="133" departSpeed="5"/>
    <vehicle id="t5_203" type="car" route="t5" depart="133" departSpeed="5"/>
    <vehicle id="t6_204" type="car" route="t6" depart="133" departSpeed="5"/>
    <vehicle id="WETop_205" type="car" route="WETop" depart="135" departSpeed="5"/>
    <vehicle id="NS_206" type="car" route="NS" depart="136" departSpeed="5"/>
    <vehicle id="WETop_207" type="car" route="WETop" depart="137" departSpeed="5"/>
    <vehicle id="EWTop_208" type="car" route="EWTop" depart="138" departSpeed="5"/>
    <vehicle id="t1_209" type="car" route="t1" depart="139" departSpeed="5"/>
    <vehicle id="EWTop_210" type="car" route="EWTop" depart="140" departSpeed="5"/>
    <vehicle id="WEBottom_211" type="car" route="WEBottom" depart="140" departSpeed="5"/>
    <vehicle id="t3_212" type="car" route="t3" depart="140" departSpeed="5"/>
    <vehicle id="t8_213" type="car" route="t8" depart="140" departSpeed="5"/>
    <vehicle id="EWTop_214" type="car" route="EWTop" depart="141" departSpeed="5"/>
    <vehicle id="SN_215" type="car" route="SN" depart="141" departSpeed="5"/>
    <vehicle id="t6_216" type="car" route="t6" depart="141" departSpeed="5"/>
    <vehicle id="t3_217" type="car" route="t3" depart="142" departSpeed="5"/>
    <vehicle id="t8_218" type="car" route="t8" depart="142" departSpeed="5"/>
    <vehicle id="t9_219" type="car" route="t9" depart="142" departSpeed="5"/>
    <vehicle id="EWTop_220" type="car" route="EWTop" depart="143" departSpeed="5"/>
    <vehicle id="WEBottom_221" type="car" route="WEBottom" depart="145" departSpeed="5"/>
    <vehicle id="NS_222" type="car" route="NS" depart="145" departSpeed="5"/>
    <vehicle id="t8_223" type="car" route="t8" depart="145" departSpeed="5"/>
    <vehicle id="EWTop_224" type="car" route="EWTop" depart="147" departSpeed="5"/>
    <vehicle id="t7_225" type="car" route="t7" depart="147" departSpeed="5"/>
    <vehicle id="WETop_226" type="car" route="WETop" depart="148" departSpeed="5"/>
    <vehicle id="SN_227" type="car" route="SN" depart="148" departSpeed="5"/>
    <vehicle id="t7_228" type="car" route="t7" depart="148" departSpeed="5"/>
    <vehicle id="EWTop_229" type="car" route="EWTop" depart="149" departSpeed="5"/>
    <vehicle id="t4_230" type="car" route="t4" depart="149" departSpeed="5"/>
    <vehicle id="t5_231" type="car" route="t5" depart="149" departSpeed="5"/>
    <vehicle id="t6_232" type="car" route="t6" depart="150" departSpeed="5"/>
    <vehicle id="t1_233" type="car" route="t1" depart="151" departSpeed="5"/>
    <vehicle id="t6_234" type="car" route="t6" depart="151" departSpeed="5"/>
    <vehicle id="t7_235" type="car" route="t7" depart="152" departSpeed="5"/>
    <vehicle id="t4_236" type="car" route="t4" depart="153" departSpeed="5"/>
    <vehicle id="t5_237" type="car" route="t5" depart="153" departSpeed="5"/>
    <vehicle id="WEBottom_238" type="car" route="WEBottom" depart="154" departSpeed="5"/>
    <vehicle id="EWBottom_239" type="car" route="EWBottom" depart="154" departSpeed="5"/>
    <vehicle id="t2_240" type="car" route="t2" depart="154" departSpeed="5"/>
    <vehicle id="t2_241" type="car" route="t2" depart="155" departSpeed="5"/>
    <vehicle id="t8_242" type="car" route="t8" depart="155" departSpeed="5"/>
    <vehicle id="t7_243" type="car" route="t7" depart="156" departSpeed="5"/>
    <vehicle id="t8_244" type="car" route="t8" depart="157" departSpeed="5"/>
    <vehicle id="EWTop_245" type="car" route="EWTop" depart="158" departSpeed="5"/>
    <vehicle id="WEBottom_246" type="car" route="WEBottom" depart="158" departSpeed="5"/>
    <vehicle id="EWBottom_247" type="car" route="EWBottom" depart="158" departSpeed="5"/>
    <vehicle id="SN_248" type="car" route="SN" depart="158" departSpeed="5"/>
    <vehicle id="t7_249" type="car" route="t7" depart="159" departSpeed="5"/>
    <vehicle id="WETop_250" type="car" route="WETop" depart="161" departSpeed="5"/>
    <vehicle id="WETop_251" type="car" route="WETop" depart="162" departSpeed="5"/>
    <vehicle id="EWBottom_252" type="car" route="EWBottom" depart="162" departSpeed="5"/>
    <vehicle id="t3_253" type="car" route="t3" depart="162" departSpeed="5"/>
    <vehicle id="t1_254" type="car" route="t1" depart="163" departSpeed="5"/>
    <vehicle id="t3_255" type="car" route="t3" depart="163" departSpeed="5"/>
    <vehicle id="t6_256" type="car" route="t6" depart="163" departSpeed="5"/>
    <vehicle id="t3_257" type="car" route="t3" depart="164" departSpeed="5"/>
    <vehicle id="t4_258" type="car" route="t4" depart="164" departSpeed="5"/>
    <vehicle id="t5_259" type="car" route="t5" depart="164" departSpeed="5"/>
    <vehicle id="t6_260" type="car" route="t6" depart="164" departSpeed="5"/>
    <vehicle id="t6_261" type="car" route="t6" depart="165" departSpeed="5"/>
    <vehicle id="t6_262" type="car" route="t6" depart="166" departSpeed="5"/>
    <vehicle id="EWTop_263" type="car" route="EWTop" depart="167" departSpeed="5"/>
    <vehicle id="t6_264" type="car" route="t6" depart="167" departSpeed="5"/>
    <vehicle id="WEBottom_265" type="car" route="WEBottom" depart="168" departSpeed="5"/>
    <vehicle id="NS_266" type="car" route="NS" depart="168" departSpeed="5"/>
    <vehicle id="WETop_267" type="car" route="WETop" depart="169" departSpeed="5"/>
    <vehicle id="t7_268" type="car" route="t7" depart="169" departSpeed="5"/>
    <vehicle id="SN_269" type="car" route="SN" depart="172" departSpeed="5"/>
    <vehicle id="t6_270" type="car" route="t6" depart="172" departSpeed="5"/>
    <vehicle id="WETop_271" type="car" route="WETop" depart="173" departSpeed="5"/>
    <vehicle id="t6_272" type="car" route="t6" depart="173" departSpeed="5"/>
    <vehicle id="WEBottom_273" type="car" route="WEBottom" depart="174" departSpeed="5"/>
    <vehicle id="SN_274" type="car" route="SN" depart="174" departSpeed="5"/>
    <vehicle id="EWBottom_275" type="car" route="EWBottom" depart="175" departSpeed="5"/>
    <vehicle id="t2_276" type="car" route="t2" depart="175" departSpeed="5"/>
    <vehicle id="t4_277" type="car" route="t4" depart="175" departSpeed="5"/>
    <vehicle id="t5_278" type="car" route="t5" depart="175" departSpeed="5"/>
    <vehicle id="WEBottom_279" type="car" route="WEBottom" depart="176" departSpeed="5"/>
    <vehicle id="EWBottom_280" type="car" route="EWBottom" depart="176" departSpeed="5"/>
    <vehicle id="t1_281" type="car" route="t1" depart="176" departSpeed="5"/>
    <vehicle id="t7_282" type="car" route="t7" depart="176" departSpeed="5"/>
    <vehicle id="t3_283" type="car" route="t3" depart="177" departSpeed="5"/>
    <vehicle id="t4_284" type="car" route="t4" depart="177" departSpeed="5"/>
    <vehicle id="t5_285" type="car" route="t5" depart="177" departSpeed="5"/>
    <vehicle id="EWTop_286" type="car" route="EWTop" depart="178" departSpeed="5"/>
    <vehicle id="t6_287" type="car" route="t6" depart="178" departSpeed="5"/>
    <vehicle id="t7_288" type="car" route="t7" depart="179" departSpeed="5"/>
    <vehicle id="WETop_289" type="car" route="WETop" depart="180" departSpeed="5"/>
    <vehicle id="EWBottom_290" type="car" route="EWBottom" depart="180" departSpeed="5"/>
    <vehicle id="t2_291" type="car" route="t2" depart="180" departSpeed="5"/>
    <vehicle id="t7_292" type="car" route="t7" depart="180" departSpeed="5"/>
    <vehicle id="SN_293" type="car" route="SN" depart="181" departSpeed="5"/>
    <vehicle id="t4_294" type="car" route="t4" depart="181" departSpeed="5"/>
    <vehicle id="t5_295" type="car" route="t5" depart="181" departSpeed="5"/>
    <vehicle id="t2_296" type="car" route="t2" depart="182" departSpeed="5"/>
    <vehicle id="NS_297" type="car" route="NS" depart="183" departSpeed="5"/>
    <vehicle id="WEBottom_298" type="car" route="WEBottom" depart="184" departSpeed="5"/>
    <vehicle id="t6_299" type="car" route="t6" depart="184" departSpeed="5"/>
    <vehicle id="WEBottom_300" type="car" route="WEBottom" depart="185" departSpeed="5"/>
    <vehicle id="EWBottom_301" type="car" route="EWBottom" depart="185" departSpeed="5"/>
    <vehicle id="EWTop_302" type="car" route="EWTop" depart="186" departSpeed="5"/>
    <vehicle id="NS_303" type="car" route="NS" depart="186" departSpeed="5"/>
    <vehicle id="t7_304" type="car" route="t7" depart="186" departSpeed="5"/>
    <vehicle id="t1_305" type="car" route="t1" depart="187" departSpeed="5"/>
    <vehicle id="WETop_306" type="car" route="WETop" depart="188" departSpeed="5"/>
    <vehicle id="t7_307" type="car" route="t7" depart="188" departSpeed="5"/>
    <vehicle id="t8_308" type="car" route="t8" depart="188" departSpeed="5"/>
    <vehicle id="EWBottom_309" type="car" route="EWBottom" depart="189" departSpeed="5"/>
    <vehicle id="t1_310" type="car" route="t1" depart="189" departSpeed="5"/>
    <vehicle id="t4_311" type="car" route="t4" depart="189" departSpeed="5"/>
    <vehicle id="t5_312" type="car" route="t5" depart="189" departSpeed="5"/>
    <vehicle id="SN_313" type="car" route="SN" depart="190" departSpeed="5"/>
    <vehicle id="t2_314" type="car" route="t2" depart="190" departSpeed="5"/>
    <vehicle id="WETop_315" type="car" route="WETop" depart="191" departSpeed="5"/>
    <vehicle id="t3_316" type="car" route="t3" depart="192" departSpeed="5"/>
    <vehicle id="EWTop_317" type="car" route="EWTop" depart="193" departSpeed="5"/>
    <vehicle id="EWBottom_318" type="car" route="EWBottom" depart="195" departSpeed="5"/>
    <vehicle id="t1_319" type="car" route="t1" depart="196" departSpeed="5"/>
    <vehicle id="t8_320" type="car" route="t8" depart="197" departSpeed="5"/>
    <vehicle id="t4_321" type="car" route="t4" depart="198" departSpeed="5"/>
    <vehicle id="t5_322" type="car" route="t5" depart="198" departSpeed="5"/>
    <vehicle id="NS_323" type="car" route="NS" depart="199" departSpeed="5"/>
    <vehicle id="t3_324" type="car" route="t3" depart="199" departSpeed="5"/>
    <vehicle id="t4_325" type="car" route="t4" depart="199" departSpeed="5"/>
    <vehicle id="t5_326" type="car" route="t5" depart="199" departSpeed="5"/>
    <vehicle id="NS_327" type="car" route="NS" depart="200" departSpeed="5"/>
    <vehicle id="t1_328" type="car" route="t1" depart="200" departSpeed="5"/>
    <vehicle id="t2_329" type="car" route="t2" depart="200" departSpeed="5"/>
    <vehicle id="t6_330" type="car" route="t6" depart="200" departSpeed="5"/>
    <vehicle id="WEBottom_331" type="car" route="WEBottom" depart="202" departSpeed="5"/>
    <vehicle id="t7_332" type="car" route="t7" depart="202" departSpeed="5"/>
    <vehicle id="t8_333" type="car" route="t8" depart="203" departSpeed="5"/>
    <vehicle id="t6_334" type="car" route="t6" depart="204" departSpeed="5"/>
    <vehicle id="t7_335" type="car" route="t7" depart="204" departSpeed="5"/>
    <vehicle id="t3_336" type="car" route="t3" depart="205" departSpeed="5"/>
    <vehicle id="t6_337" type="car" route="t6" depart="205" departSpeed="5"/>
    <vehicle id="t4_338" type="car" route="t4" depart="206" departSpeed="5"/>
    <vehicle id="t5_339" type="car" route="t5" depart="206" departSpeed="5"/>
    <vehicle id="t7_340" type="car" route="t7" depart="207" departSpeed="5"/>
    <vehicle id="EWBottom_341" type="car" route="EWBottom" depart="209" departSpeed="5"/>
    <vehicle id="t4_342" type="car" route="t4" depart="209" departSpeed="5"/>
    <vehicle id="t5_343" type="car" route="t5" depart="209" departSpeed="5"/>
    <vehicle id="t8_344" type="car" route="t8" depart="210" departSpeed="5"/>
    <vehicle id="t9_345" type="car" route="t9" depart="210" departSpeed="5"/>
    <vehicle id="SN_346" type="car" route="SN" depart="211" departSpeed="5"/>
    <vehicle id="t6_347" type="car" route="t6" depart="211" departSpeed="5"/>
    <vehicle id="t7_348" type="car" route="t7" depart="211" departSpeed="5"/>
    <vehicle id="WETop_349" type="car" route="WETop" depart="212" departSpeed="5"/>
    <vehicle id="EWTop_350" type="car" route="EWTop" depart="212" departSpeed="5"/>
    <vehicle id="t2_351" type="car" route="t2" depart="212" departSpeed="5"/>
    <vehicle id="t6_352" type="car" route="t6" depart="213" departSpeed="5"/>
    <vehicle id="WEBottom_353" type="car" route="WEBottom" depart="214" departSpeed="5"/>
    <vehicle id="WEBottom_354" type="car" route="WEBottom" depart="219" departSpeed="5"/>
    <vehicle id="SN_355" type="car" route="SN" depart="219" departSpeed="5"/>
    <vehicle id="t2_356" type="car" route="t2" depart="219" departSpeed="5"/>
    <vehicle id="WEBottom_357" type="car" route="WEBottom" depart="220" departSpeed="5"/>
    <vehicle id="t6_358" type="car" route="t6" depart="220" departSpeed="5"/>
    <vehicle id="t2_359" type="car" route="t2" depart="221" departSpeed="5"/>
    <vehicle id="SN_360" type="car" route="SN" depart="222" departSpeed="5"/>