<routes>
                               <vType id="car" accel="2.0" decel="8.5" sigma="0.7" length="5" minGap="3" maxSpeed="30" guiShape="passenger"/>

                               <route id="WETop" edges="5i 1i 2o" />
                               <route id="EWTop" edges="2i 1o 5o" />
                               <route id="NS" edges="4i 3o 8i" />
                               <route id="SN" edges="8o 3i 4o" />
                               <route id="WEBottom" edges="7o 11o" />
                               <route id="EWBottom" edges="11i 7i" />

                               <route id="t2" edges="8o 7i" />
                               <route id="t3" edges="4i 1o 6i" />
                               <route id="t4" edges="7o 3i 2o" />
                               <route id="t5" edges="6o 1i 4o" />
                               <route id="t6" edges="5i 1i 3o 11o" />
                               
    <vehicle id="t4_0" type="car" route="t4" depart="0" departSpeed="15"/>
    <vehicle id="EWTop_1" type="car" route="EWTop" depart="7" departSpeed="15"/>
    <vehicle id="SN_2" type="car" route="SN" depart="8" departSpeed="15"/>
    <vehicle id="WEBottom_3" type="car" route="WEBottom" depart="9" departSpeed="15"/>
    <vehicle id="NS_4" type="car" route="NS" depart="12" departSpeed="15"/>
    <vehicle id="t3_5" type="car" route="t3" depart="12" departSpeed="15"/>
    <vehicle id="t6_6" type="car" route="t6" depart="12" departSpeed="15"/>
    <vehicle id="t3_7" type="car" route="t3" depart="16" departSpeed="15"/>
    <vehicle id="t3_8" type="car" route="t3" depart="23" departSpeed="15"/>
    <vehicle id="t4_9" type="car" route="t4" depart="27" departSpeed="15"/>
    <vehicle id="t2_10" type="car" route="t2" depart="28" departSpeed="15"/>
    <vehicle id="t5_11" type="car" route="t5" depart="35" departSpeed="15"/>
    <vehicle id="WETop_12" type="car" route="WETop" depart="36" departSpeed="15"/>
    <vehicle id="EWBottom_13" type="car" route="EWBottom" depart="37" departSpeed="15"/>
    <vehicle id="EWTop_14" type="car" route="EWTop" depart="40" departSpeed="15"/>
    <vehicle id="EWTop_15" type="car" route="EWTop" depart="46" departSpeed="15"/>
    <vehicle id="EWTop_16" type="car" route="EWTop" depart="48" departSpeed="15"/>
    <vehicle id="EWBottom_17" type="car" route="EWBottom" depart="48" departSpeed="15"/>
    <vehicle id="t2_18" type="car" route="t2" depart="49" departSpeed="15"/>
    <vehicle id="t3_19" type="car" route="t3" depart="50" departSpeed="15"/>
    <vehicle id="WEBottom_20" type="car" route="WEBottom" depart="52" departSpeed="15"/>
    <vehicle id="WETop_21" type="car" route="WETop" depart="54" departSpeed="15"/>
    <vehicle id="EWTop_22" type="car" route="EWTop" depart="57" departSpeed="15"/>
    <vehicle id="t6_23" type="car" route="t6" depart="58" departSpeed="15"/>
    <vehicle id="SN_24" type="car" route="SN" depart="60" departSpeed="15"/>
    <vehicle id="t4_25" type="car" route="t4" depart="60" departSpeed="15"/>
    <vehicle id="t4_26" type="car" route="t4" depart="62" departSpeed="15"/>
    <vehicle id="t5_27" type="car" route="t5" depart="64" departSpeed="15"/>
    <vehicle id="EWTop_28" type="car" route="EWTop" depart="67" departSpeed="15"/>
    <vehicle id="WEBottom_29" type="car" route="WEBottom" depart="68" departSpeed="15"/>
    <vehicle id="t6_30" type="car" route="t6" depart="69" departSpeed="15"/>
    <vehicle id="t4_31" type="car" route="t4" depart="72" departSpeed="15"/>
    <vehicle id="t5_32" type="car" route="t5" depart="72" departSpeed="15"/>
    <vehicle id="EWBottom_33" type="car" route="EWBottom" depart="77" departSpeed="15"/>
    <vehicle id="t4_34" type="car" route="t4" depart="77" departSpeed="15"/>
    <vehicle id="t5_35" type="car" route="t5" depart="82" departSpeed="15"/>
    <vehicle id="EWTop_36" type="car" route="EWTop" depart="83" departSpeed="15"/>
    <vehicle id="t5_37" type="car" route="t5" depart="85" departSpeed="15"/>
    <vehicle id="t4_38" type="car" route="t4" depart="86" departSpeed="15"/>
    <vehicle id="t4_39" type="car" route="t4" depart="88" departSpeed="15"/>
    <vehicle id="WETop_40" type="car" route="WETop" depart="90" departSpeed="15"/>
    <vehicle id="t4_41" type="car" route="t4" depart="95" departSpeed="15"/>
    <vehicle id="WEBottom_42" type="car" route="WEBottom" depart="96" departSpeed="15"/>
    <vehicle id="t2_43" type="car" route="t2" depart="97" departSpeed="15"/>
    <vehicle id="t5_44" type="car" route="t5" depart="97" departSpeed="15"/>
    <vehicle id="WEBottom_45" type="car" route="WEBottom" depart="98" departSpeed="15"/>
    <vehicle id="EWBottom_46" type="car" route="EWBottom" depart="99" departSpeed="15"/>
    <vehicle id="t6_47" type="car" route="t6" depart="100" departSpeed="15"/>
    <vehicle id="WETop_48" type="car" route="WETop" depart="107" departSpeed="15"/>
    <vehicle id="t5_49" type="car" route="t5" depart="109" departSpeed="15"/>
    <vehicle id="t5_50" type="car" route="t5" depart="110" departSpeed="15"/>
    <vehicle id="t2_51" type="car" route="t2" depart="112" departSpeed="15"/>
    <vehicle id="t2_52" type="car" route="t2" depart="113" departSpeed="15"/>
    <vehicle id="t4_53" type="car" route="t4" depart="114" departSpeed="15"/>
    <vehicle id="SN_54" type="car" route="SN" depart="115" departSpeed="15"/>
    <vehicle id="t6_55" type="car" route="t6" depart="119" departSpeed="15"/>
    <vehicle id="NS_56" type="car" route="NS" depart="120" departSpeed="15"/>
    <vehicle id="t5_57" type="car" route="t5" depart="121" departSpeed="15"/>
    <vehicle id="t5_58" type="car" route="t5" depart="122" departSpeed="15"/>
    <vehicle id="NS_59" type="car" route="NS" depart="126" departSpeed="15"/>
    <vehicle id="SN_60" type="car" route="SN" depart="129" departSpeed="15"/>
    <vehicle id="EWBottom_61" type="car" route="EWBottom" depart="132" departSpeed="15"/>
    <vehicle id="t2_62" type="car" route="t2" depart="132" departSpeed="15"/>
    <vehicle id="t6_63" type="car" route="t6" depart="132" departSpeed="15"/>
    <vehicle id="t3_64" type="car" route="t3" depart="134" departSpeed="15"/>
    <vehicle id="NS_65" type="car" route="NS" depart="137" departSpeed="15"/>
    <vehicle id="t2_66" type="car" route="t2" depart="137" departSpeed="15"/>
    <vehicle id="t3_67" type="car" route="t3" depart="137" departSpeed="15"/>
    <vehicle id="t3_68" type="car" route="t3" depart="138" departSpeed="15"/>
    <vehicle id="EWTop_69" type="car" route="EWTop" depart="143" departSpeed="15"/>
    <vehicle id="WEBottom_70" type="car" route="WEBottom" depart="144" departSpeed="15"/>
    <vehicle id="t6_71" type="car" route="t6" depart="147" departSpeed="15"/>
    <vehicle id="WETop_72" type="car" route="WETop" depart="149" departSpeed="15"/>
    <vehicle id="t6_73" type="car" route="t6" depart="152" departSpeed="15"/>
    <vehicle id="t3_74" type="car" route="t3" depart="156" departSpeed="15"/>
    <vehicle id="WEBottom_75" type="car" route="WEBottom" depart="159" departSpeed="15"/>
    <vehicle id="WETop_76" type="car" route="WETop" depart="164" departSpeed="15"/>
    <vehicle id="WEBottom_77" type="car" route="WEBottom" depart="164" departSpeed="15"/>
    <vehicle id="EWBottom_78" type="car" route="EWBottom" depart="164" departSpeed="15"/>
    <vehicle id="t6_79" type="car" route="t6" depart="167" departSpeed="15"/>
    <vehicle id="WEBottom_80" type="car" route="WEBottom" depart="170" departSpeed="15"/>
    <vehicle id="t4_81" type="car" route="t4" depart="172" departSpeed="15"/>
    <vehicle id="WEBottom_82" type="car" route="WEBottom" depart="178" departSpeed="15"/>
    <vehicle id="t6_83" type="car" route="t6" depart="178" departSpeed="15"/>
    <vehicle id="EWBottom_84" type="car" route="EWBottom" depart="184" departSpeed="15"/>
    <vehicle id="WEBottom_85" type="car" route="WEBottom" depart="189" departSpeed="15"/>
    <vehicle id="t3_86" type="car" route="t3" depart="189" departSpeed="15"/>
    <vehicle id="t4_87" type="car" route="t4" depart="189" departSpeed="15"/>
    <vehicle id="t4_88" type="car" route="t4" depart="190" departSpeed="15"/>
    <vehicle id="WETop_89" type="car" route="WETop" depart="193" departSpeed="15"/>
    <vehicle id="EWBottom_90" type="car" route="EWBottom" depart="194" departSpeed="15"/>
    <vehicle id="t4_91" type="car" route="t4" depart="200" departSpeed="15"/>
    <vehicle id="t5_92" type="car" route="t5" depart="200" departSpeed="15"/>
    <vehicle id="t4_93" type="car" route="t4" depart="203" departSpeed="15"/>
    <vehicle id="NS_94" type="car" route="NS" depart="204" departSpeed="15"/>
    <vehicle id="t5_95" type="car" route="t5" depart="205" departSpeed="15"/>
    <vehicle id="WETop_96" type="car" route="WETop" depart="211" departSpeed="15"/>
    <vehicle id="SN_97" type="car" route="SN" depart="212" departSpeed="15"/>
    <vehicle id="WEBottom_98" type="car" route="WEBottom" depart="218" departSpeed="15"/>
    <vehicle id="t3_99" type="car" route="t3" depart="220" departSpeed="15"/>
    <vehicle id="SN_100" type="car" route="SN" depart="224" departSpeed="15"/>
    <vehicle id="t4_101" type="car" route="t4" depart="226" departSpeed="15"/>
    <vehicle id="WETop_102" type="car" route="WETop" depart="227" departSpeed="15"/>
    <vehicle id="WEBottom_103" type="car" route="WEBottom" depart="227" departSpeed="15"/>
    <vehicle id="EWTop_104" type="car" route="EWTop" depart="229" departSpeed="15"/>
    <vehicle id="WEBottom_105" type="car" route="WEBottom" depart="229" departSpeed="15"/>
    <vehicle id="EWBottom_106" type="car" route="EWBottom" depart="229" departSpeed="15"/>
    <vehicle id="t3_107" type="car" route="t3" depart="231" departSpeed="15"/>
    <vehicle id="t6_108" type="car" route="t6" depart="231" departSpeed="15"/>
    <vehicle id="EWBottom_109" type="car" route="EWBottom" depart="233" departSpeed="15"/>
    <vehicle id="t6_110" type="car" route="t6" depart="234" departSpeed="15"/>
    <vehicle id="NS_111" type="car" route="NS" depart="235" departSpeed="15"/>
    <vehicle id="t4_112" type="car" route="t4" depart="235" departSpeed="15"/>
    <vehicle id="t4_113" type="car" route="t4" depart="236" departSpeed="15"/>
    <vehicle id="WEBottom_114" type="car" route="WEBottom" depart="237" departSpeed="15"/>
    <vehicle id="SN_115" type="car" route="SN" depart="237" departSpeed="15"/>
    <vehicle id="WEBottom_116" type="car" route="WEBottom" depart="238" departSpeed="15"/>
    <vehicle id="t4_117" type="car" route="t4" depart="239" departSpeed="15"/>
    <vehicle id="t4_118" type="car" route="t4" depart="241" departSpeed="15"/>
    <vehicle id="WETop_119" type="car" route="WETop" depart="248" departSpeed="15"/>
    <vehicle id="t4_120" type="car" route="t4" depart="250" departSpeed="15"/>
    <vehicle id="t3_121" type="car" route="t3" depart="251" departSpeed="15"/>
    <vehicle id="NS_122" type="car" route="NS" depart="254" departSpeed="15"/>
    <vehicle id="EWTop_123" type="car" route="EWTop" depart="258" departSpeed="15"/>
    <vehicle id="t3_124" type="car" route="t3" depart="258" departSpeed="15"/>
    <vehicle id="SN_125" type="car" route="SN" depart="259" departSpeed="15"/>
    <vehicle id="t2_126" type="car" route="t2" depart="259" departSpeed="15"/>
    <vehicle id="EWTop_127" type="car" route="EWTop" depart="260" departSpeed="15"/>
    <vehicle id="EWBottom_128" type="car" route="EWBottom" depart="263" departSpeed="15"/>
    <vehicle id="EWBottom_129" type="car" route="EWBottom" depart="266" departSpeed="15"/>
    <vehicle id="t5_130" type="car" route="t5" depart="266" departSpeed="15"/>
    <vehicle id="SN_131" type="car" route="SN" depart="267" departSpeed="15"/>
    <vehicle id="EWBottom_132" type="car" route="EWBottom" depart="270" departSpeed="15"/>
    <vehicle id="EWTop_133" type="car" route="EWTop" depart="271" departSpeed="15"/>
    <vehicle id="t5_134" type="car" route="t5" depart="276" departSpeed="15"/>
    <vehicle id="EWBottom_135" type="car" route="EWBottom" depart="277" departSpeed="15"/>
    <vehicle id="t4_136" type="car" route="t4" depart="277" departSpeed="15"/>
    <vehicle id="EWBottom_137" type="car" route="EWBottom" depart="278" departSpeed="15"/>
    <vehicle id="t5_138" type="car" route="t5" depart="280" departSpeed="15"/>
    <vehicle id="t2_139" type="car" route="t2" depart="281" departSpeed="15"/>
    <vehicle id="SN_140" type="car" route="SN" depart="286" departSpeed="15"/>
    <vehicle id="SN_141" type="car" route="SN" depart="287" departSpeed="15"/>
    <vehicle id="t4_142" type="car" route="t4" depart="291" departSpeed="15"/>
    <vehicle id="SN_143" type="car" route="SN" depart="293" departSpeed="15"/>
    <vehicle id="WETop_144" type="car" route="WETop" depart="295" departSpeed="15"/>
    <vehicle id="t2_145" type="car" route="t2" depart="296" departSpeed="15"/>
    <vehicle id="t6_146" type="car" route="t6" depart="296" departSpeed="15"/>
    <vehicle id="SN_147" type="car" route="SN" depart="298" departSpeed="15"/>
    <vehicle id="t3_148" type="car" route="t3" depart="299" departSpeed="15"/>
    <vehicle id="WETop_149" type="car" route="WETop" depart="303" departSpeed="15"/>
    <vehicle id="t3_150" type="car" route="t3" depart="303" departSpeed="15"/>
    <vehicle id="SN_151" type="car" route="SN" depart="307" departSpeed="15"/>
    <vehicle id="t4_152" type="car" route="t4" depart="309" departSpeed="15"/>
    <vehicle id="NS_153" type="car" route="NS" depart="311" departSpeed="15"/>
    <vehicle id="WETop_154" type="car" route="WETop" depart="314" departSpeed="15"/>
    <vehicle id="EWBottom_155" type="car" route="EWBottom" depart="314" departSpeed="15"/>
    <vehicle id="t5_156" type="car" route="t5" depart="315" departSpeed="15"/>
    <vehicle id="EWTop_157" type="car" route="EWTop" depart="317" departSpeed="15"/>
    <vehicle id="t2_158" type="car" route="t2" depart="317" departSpeed="15"/>
    <vehicle id="t3_159" type="car" route="t3" depart="320" departSpeed="15"/>
    <vehicle id="t6_160" type="car" route="t6" depart="320" departSpeed="15"/>
    <vehicle id="t6_161" type="car" route="t6" depart="324" departSpeed="15"/>
    <vehicle id="WETop_162" type="car" route="WETop" depart="326" departSpeed="15"/>
    <vehicle id="t2_163" type="car" route="t2" depart="326" departSpeed="15"/>
    <vehicle id="WEBottom_164" type="car" route="WEBottom" depart="335" departSpeed="15"/>
    <vehicle id="SN_165" type="car" route="SN" depart="337" departSpeed="15"/>
    <vehicle id="t4_166" type="car" route="t4" depart="339" departSpeed="15"/>
    <vehicle id="t2_167" type="car" route="t2" depart="341" departSpeed="15"/>
    <vehicle id="t6_168" type="car" route="t6" depart="343" departSpeed="15"/>
    <vehicle id="EWBottom_169" type="car" route="EWBottom" depart="345" departSpeed="15"/>
    <vehicle id="WETop_170" type="car" route="WETop" depart="347" departSpeed="15"/>
    <vehicle id="SN_171" type="car" route="SN" depart="353" departSpeed="15"/>
    <vehicle id="t4_172" type="car" route="t4" depart="356" departSpeed="15"/>
    <vehicle id="EWBottom_173" type="car" route="EWBottom" depart="360" departSpeed="15"/>
    <vehicle id="SN_174" type="car" route="SN" depart="360" departSpeed="15"/>
    <vehicle id="t4_175" type="car" route="t4" depart="360" departSpeed="15"/>
    <vehicle id="EWBottom_176" type="car" route="EWBottom" depart="361" departSpeed="15"/>
    <vehicle id="SN_177" type="car" route="SN" depart="361" departSpeed="15"/>
    <vehicle id="t5_178" type="car" route="t5" depart="361" departSpeed="15"/>
    <vehicle id="t3_179" type="car" route="t3" depart="366" departSpeed="15"/>
    <vehicle id="t6_180" type="car" route="t6" depart="368" departSpeed="15"/>
    <vehicle id="WETop_181" type="car" route="WETop" depart="369" departSpeed="15"/>
    <vehicle id="EWBottom_182" type="car" route="EWBottom" depart="369" departSpeed="15"/>
    <vehicle id="EWTop_183" type="car" route="EWTop" depart="371" departSpeed="15"/>
    <vehicle id="t5_184" type="car" route="t5" depart="373" departSpeed="15"/>
    <vehicle id="EWBottom_185" type="car" route="EWBottom" depart="374" departSpeed="15"/>
    <vehicle id="t5_186" type="car" route="t5" depart="377" departSpeed="15"/>
    <vehicle id="WETop_187" type="car" route="WETop" depart="379" departSpeed="15"/>
    <vehicle id="t4_188" type="car" route="t4" depart="380" departSpeed="15"/>
    <vehicle id="WETop_189" type="car" route="WETop" depart="381" departSpeed="15"/>
    <vehicle id="EWBottom_190" type="car" route="EWBottom" depart="383" departSpeed="15"/>
    <vehicle id="SN_191" type="car" route="SN" depart="389" departSpeed="15"/>
    <vehicle id="SN_192" type="car" route="SN" depart="390" departSpeed="15"/>
    <vehicle id="WEBottom_193" type="car" route="WEBottom" depart="392" departSpeed="15"/>
    <vehicle id="WEBottom_194" type="car" route="WEBottom" depart="396" departSpeed="15"/>
    <vehicle id="t5_195" type="car" route="t5" depart="398" departSpeed="15"/>
    <vehicle id="WEBottom_196" type="car" route="WEBottom" depart="399" departSpeed="15"/>
    <vehicle id="t6_197" type="car" route="t6" depart="400" departSpeed="15"/>
    <vehicle id="t2_198" type="car" route="t2" depart="402" departSpeed="15"/>
    <vehicle id="t5_199" type="car" route="t5" depart="409" departSpeed="15"/>
    <vehicle id="WETop_200" type="car" route="WETop" depart="412" departSpeed="15"/>
    <vehicle id="SN_201" type="car" route="SN" depart="414" departSpeed="15"/>
    <vehicle id="t3_202" type="car" route="t3" depart="416" departSpeed="15"/>
    <vehicle id="t5_203" type="car" route="t5" depart="417" departSpeed="15"/>
    <vehicle id="t3_204" type="car" route="t3" depart="419" departSpeed="15"/>
    <vehicle id="SN_205" type="car" route="SN" depart="420" departSpeed="15"/>
    <vehicle id="NS_206" type="car" route="NS" depart="421" departSpeed="15"/>
    <vehicle id="t4_207" type="car" route="t4" depart="424" departSpeed="15"/>
    <vehicle id="t3_208" type="car" route="t3" depart="430" departSpeed="15"/>
    <vehicle id="t5_209" type="car" route="t5" depart="430" departSpeed="15"/>
    <vehicle id="t2_210" type="car" route="t2" depart="431" departSpeed="15"/>
    <vehicle id="EWBottom_211" type="car" route="EWBottom" depart="436" departSpeed="15"/>
    <vehicle id="WETop_212" type="car" route="WETop" depart="442" departSpeed="15"/>
    <vehicle id="t4_213" type="car" route="t4" depart="445" departSpeed="15"/>
    <vehicle id="t5_214" type="car" route="t5" depart="446" departSpeed="15"/>
    <vehicle id="t4_215" type="car" route="t4" depart="448" departSpeed="15"/>
    <vehicle id="SN_216" type="car" route="SN" depart="449" departSpeed="15"/>
    <vehicle id="SN_217" type="car" route="SN" depart="450" departSpeed="15"/>
    <vehicle id="t6_218" type="car" route="t6" depart="450" departSpeed="15"/>
    <vehicle id="EWTop_219" type="car" route="EWTop" depart="455" departSpeed="15"/>
    <vehicle id="SN_220" type="car" route="SN" depart="455" departSpeed="15"/>
    <vehicle id="t6_221" type="car" route="t6" depart="455" departSpeed="15"/>
    <vehicle id="SN_222" type="car" route="SN" depart="456" departSpeed="15"/>
    <vehicle id="t2_223" type="car" route="t2" depart="458" departSpeed="15"/>
    <vehicle id="t5_224" type="car" route="t5" depart="458" departSpeed="15"/>
    <vehicle id="WEBottom_225" type="car" route="WEBottom" depart="460" departSpeed="15"/>
    <vehicle id="t6_226" type="car" route="t6" depart="460" departSpeed="15"/>
    <vehicle id="t6_227" type="car" route="t6" depart="465" departSpeed="15"/>
    <vehicle id="t5_228" type="car" route="t5" depart="466" departSpeed="15"/>
    <vehicle id="NS_229" type="car" route="NS" depart="468" departSpeed="15"/>
    <vehicle id="WEBottom_230" type="car" route="WEBottom" depart="469" departSpeed="15"/>
    <vehicle id="t4_231" type="car" route="t4" depart="470" departSpeed="15"/>
    <vehicle id="NS_232" type="car" route="NS" depart="472" departSpeed="15"/>
    <vehicle id="WEBottom_233" type="car" route="WEBottom" depart="474" departSpeed="15"/>
    <vehicle id="EWTop_234" type="car" route="EWTop" depart="476" departSpeed="15"/>
    <vehicle id="EWBottom_235" type="car" route="EWBottom" depart="478" departSpeed="15"/>
    <vehicle id="t4_236" type="car" route="t4" depart="483" departSpeed="15"/>
    <vehicle id="t5_237" type="car" route="t5" depart="483" departSpeed="15"/>
    <vehicle id="EWBottom_238" type="car" route="EWBottom" depart="484" departSpeed="15"/>
    <vehicle id="EWTop_239" type="car" route="EWTop" depart="485" departSpeed="15"/>
    <vehicle id="EWTop_240" type="car" route="EWTop" depart="487" departSpeed="15"/>
    <vehicle id="t4_241" type="car" route="t4" depart="487" departSpeed="15"/>
    <vehicle id="NS_242" type="car" route="NS" depart="489" departSpeed="15"/>
    <vehicle id="EWBottom_243" type="car" route="EWBottom" depart="496" departSpeed="15"/>
    <vehicle id="t2_244" type="car" route="t2" depart="497" departSpeed="15"/>
    <vehicle id="NS_245" type="car" route="NS" depart="499" departSpeed="15"/>
    <vehicle id="t6_246" type="car" route="t6" depart="499" departSpeed="15"/>
    <vehicle id="WEBottom_247" type="car" route="WEBottom" depart="500" departSpeed="15"/>
    <vehicle id="t5_248" type="car" route="t5" depart="501" departSpeed="15"/>
    <vehicle id="t5_249" type="car" route="t5" depart="502" departSpeed="15"/>
    <vehicle id="WETop_250" type="car" route="WETop" depart="503" departSpeed="15"/>
    <vehicle id="EWBottom_251" type="car" route="EWBottom" depart="504" departSpeed="15"/>
    <vehicle id="WEBottom_252" type="car" route="WEBottom" depart="506" departSpeed="15"/>
    <vehicle id="WEBottom_253" type="car" route="WEBottom" depart="508" departSpeed="15"/>
    <vehicle id="t6_254" type="car" route="t6" depart="508" departSpeed="15"/>
    <vehicle id="t3_255" type="car" route="t3" depart="512" departSpeed="15"/>
    <vehicle id="EWBottom_256" type="car" route="EWBottom" depart="513" departSpeed="15"/>
    <vehicle id="EWBottom_257" type="car" route="EWBottom" depart="516" departSpeed="15"/>
    <vehicle id="t3_258" type="car" route="t3" depart="517" departSpeed="15"/>
    <vehicle id="t6_259" type="car" route="t6" depart="518" departSpeed="15"/>
    <vehicle id="EWBottom_260" type="car" route="EWBottom" depart="519" departSpeed="15"/>
    <vehicle id="t3_261" type="car" route="t3" depart="521" departSpeed="15"/>
    <vehicle id="t5_262" type="car" route="t5" depart="526" departSpeed="15"/>
    <vehicle id="EWTop_263" type="car" route="EWTop" depart="529" departSpeed="15"/>
    <vehicle id="NS_264" type="car" route="NS" depart="531" departSpeed="15"/>
    <vehicle id="SN_265" type="car" route="SN" depart="532" departSpeed="15"/>
    <vehicle id="t3_266" type="car" route="t3" depart="533" departSpeed="15"/>
    <vehicle id="t5_267" type="car" route="t5" depart="533" departSpeed="15"/>
    <vehicle id="t6_268" type="car" route="t6" depart="533" departSpeed="15"/>
    <vehicle id="EWTop_269" type="car" route="EWTop" depart="535" departSpeed="15"/>
    <vehicle id="t5_270" type="car" route="t5" depart="536" departSpeed="15"/>
    <vehicle id="SN_271" type="car" route="SN" depart="537" departSpeed="15"/>
    <vehicle id="WETop_272" type="car" route="WETop" depart="540" departSpeed="15"/>
    <vehicle id="t6_273" type="car" route="t6" depart="540" departSpeed="15"/>
    <vehicle id="NS_274" type="car" route="NS" depart="541" departSpeed="15"/>
    <vehicle id="WEBottom_275" type="car" route="WEBottom" depart="542" departSpeed="15"/>
    <vehicle id="t6_276" type="car" route="t6" depart="543" departSpeed="15"/>
    <vehicle id="WETop_277" type="car" route="WETop" depart="546" departSpeed="15"/>
    <vehicle id="EWTop_278" type="car" route="EWTop" depart="546" departSpeed="15"/>
    <vehicle id="NS_279" type="car" route="NS" depart="546" departSpeed="15"/>
    <vehicle id="SN_280" type="car" route="SN" depart="548" departSpeed="15"/>
    <vehicle id="t4_281" type="car" route="t4" depart="549" departSpeed="15"/>
    <vehicle id="NS_282" type="car" route="NS" depart="550" departSpeed="15"/>
    <vehicle id="t6_283" type="car" route="t6" depart="553" departSpeed="15"/>
    <vehicle id="WEBottom_284" type="car" route="WEBottom" depart="555" departSpeed="15"/>
    <vehicle id="EWBottom_285" type="car" route="EWBottom" depart="559" departSpeed="15"/>
    <vehicle id="SN_286" type="car" route="SN" depart="560" departSpeed="15"/>
    <vehicle id="EWBottom_287" type="car" route="EWBottom" depart="564" departSpeed="15"/>
    <vehicle id="t3_288" type="car" route="t3" depart="565" departSpeed="15"/>
    <vehicle id="NS_289" type="car" route="NS" depart="566" departSpeed="15"/>
    <vehicle id="WETop_290" type="car" route="WETop" depart="567" departSpeed="15"/>
    <vehicle id="t6_291" type="car" route="t6" depart="567" departSpeed="15"/>
    <vehicle id="EWTop_292" type="car" route="EWTop" depart="570" departSpeed="15"/>
    <vehicle id="SN_293" type="car" route="SN" depart="572" departSpeed="15"/>
    <vehicle id="t2_294" type="car" route="t2" depart="572" departSpeed="15"/>
    <vehicle id="t5_295" type="car" route="t5" depart="574" departSpeed="15"/>
    <vehicle id="EWTop_296" type="car" route="EWTop" depart="575" departSpeed="15"/>
    <vehicle id="t3_297" type="car" route="t3" depart="576" departSpeed="15"/>
    <vehicle id="WEBottom_298" type="car" route="WEBottom" depart="578" departSpeed="15"/>
    <vehicle id="EWTop_299" type="car" route="EWTop" depart="580" departSpeed="15"/>
    <vehicle id="EWTop_300" type="car" route="EWTop" depart="581" departSpeed="15"/>
    <vehicle id="t2_301" type="car" route="t2" depart="581" departSpeed="15"/>
    <vehicle id="EWBottom_302" type="car" route="EWBottom" depart="583" departSpeed="15"/>
    <vehicle id="t6_303" type="car" route="t6" depart="584" departSpeed="15"/>
    <vehicle id="NS_304" type="car" route="NS" depart="585" departSpeed="15"/>
    <vehicle id="t3_305" type="car" route="t3" depart="588" departSpeed="15"/>
    <vehicle id="t6_306" type="car" route="t6" depart="588" departSpeed="15"/>
    <vehicle id="t3_307" type="car" route="t3" depart="593" departSpeed="15"/>
    <vehicle id="t2_308" type="car" route="t2" depart="594" departSpeed="15"/>
    <vehicle id="NS_309" type="car" route="NS" depart="596" departSpeed="15"/>
    <vehicle id="EWTop_310" type="car" route="EWTop" depart="598" departSpeed="15"/>
    <vehicle id="t4_311" type="car" route="t4" depart="599" departSpeed="15"/>
    <vehicle id="t5_312" type="car" route="t5" depart="599" departSpeed="15"/>
    <vehicle id="WEBottom_313" type="car" route="WEBottom" depart="602" departSpeed="15"/>
    <vehicle id="SN_314" type="car" route="SN" depart="610" departSpeed="15"/>
    <vehicle id="t6_315" type="car" route="t6" depart="612" departSpeed="15"/>
    <vehicle id="NS_316" type="car" route="NS" depart="614" departSpeed="15"/>
    <vehicle id="t5_317" type="car" route="t5" depart="614" departSpeed="15"/>
    <vehicle id="t2_318" type="car" route="t2" depart="616" departSpeed="15"/>
    <vehicle id="NS_319" type="car" route="NS" depart="617" departSpeed="15"/>
    <vehicle id="t4_320" type="car" route="t4" depart="618" departSpeed="15"/>
    <vehicle id="SN_321" type="car" route="SN" depart="619" departSpeed="15"/>
    <vehicle id="t2_322" type="car" route="t2" depart="621" departSpeed="15"/>
    <vehicle id="t5_323" type="car" route="t5" depart="621" departSpeed="15"/>
    <vehicle id="t2_324" type="car" route="t2" depart="622" departSpeed="15"/>
    <vehicle id="t4_325" type="car" route="t4" depart="622" departSpeed="15"/>
    <vehicle id="WETop_326" type="car" route="WETop" depart="623" departSpeed="15"/>
    <vehicle id="t6_327" type="car" route="t6" depart="623" departSpeed="15"/>
    <vehicle id="SN_328" type="car" route="SN" depart="634" departSpeed="15"/>
    <vehicle id="t5_329" type="car" route="t5" depart="634" departSpeed="15"/>
    <vehicle id="t3_330" type="car" route="t3" depart="637" departSpeed="15"/>
    <vehicle id="t5_331" type="car" route="t5" depart="638" departSpeed="15"/>
    <vehicle id="EWTop_332" type="car" route="EWTop" depart="640" departSpeed="15"/>
    <vehicle id="EWBottom_333" type="car" route="EWBottom" depart="640" departSpeed="15"/>
    <vehicle id="EWTop_334" type="car" route="EWTop" depart="641" departSpeed="15"/>
    <vehicle id="EWBottom_335" type="car" route="EWBottom" depart="642" departSpeed="15"/>
    <vehicle id="t6_336" type="car" route="t6" depart="647" departSpeed="15"/>
    <vehicle id="t5_337" type="car" route="t5" depart="648" departSpeed="15"/>
    <vehicle id="t6_338" type="car" route="t6" depart="652" departSpeed="15"/>
    <vehicle id="WEBottom_339" type="car" route="WEBottom" depart="658" departSpeed="15"/>
    <vehicle id="NS_340" type="car" route="NS" depart="662" departSpeed="15"/>
    <vehicle id="t5_341" type="car" route="t5" depart="663" departSpeed="15"/>
    <vehicle id="WEBottom_342" type="car" route="WEBottom" depart="664" departSpeed="15"/>
    <vehicle id="NS_343" type="car" route="NS" depart="664" departSpeed="15"/>
    <vehicle id="t6_344" type="car" route="t6" depart="669" departSpeed="15"/>
    <vehicle id="NS_345" type="car" route="NS" depart="672" departSpeed="15"/>
    <vehicle id="t5_346" type="car" route="t5" depart="672" departSpeed="15"/>
    <vehicle id="t4_347" type="car" route="t4" depart="674" departSpeed="15"/>
    <vehicle id="t6_348" type="car" route="t6" depart="676" departSpeed="15"/>
    <vehicle id="SN_349" type="car" route="SN" depart="677" departSpeed="15"/>
    <vehicle id="WETop_350" type="car" route="WETop" depart="679" departSpeed="15"/>
    <vehicle id="WEBottom_351" type="car" route="WEBottom" depart="679" departSpeed="15"/>
    <vehicle id="NS_352" type="car" route="NS" depart="680" departSpeed="15"/>
    <vehicle id="WETop_353" type="car" route="WETop" depart="684" departSpeed="15"/>
    <vehicle id="WEBottom_354" type="car" route="WEBottom" depart="685" departSpeed="15"/>