<routes>
                               <vType id="car" accel="2.0" decel="8.5" sigma="0.7" length="5" minGap="3" maxSpeed="30" guiShape="passenger"/>

                               <route id="WETop" edges="5i 1i 2o" />
                               <route id="EWTop" edges="2i 1o 5o" />
                               <route id="NS" edges="4i 3o 8i" />
                               <route id="SN" edges="8o 3i 4o" />
                               <route id="WEBottom" edges="7o 11o" />
                               <route id="EWBottom" edges="11i 7i" />

                               <route id="t2" edges="8o 7i" />
                               <route id="t3" edges="4i 1o 6i" />
                               <route id="t4" edges="7o 3i 2o" />
                               <route id="t5" edges="6o 1i 4o" />
                               <route id="t6" edges="5i 1i 3o 11o" />
                               
    <vehicle id="EWBottom_0" type="car" route="EWBottom" depart="0" departSpeed="15"/>
    <vehicle id="t6_1" type="car" route="t6" depart="9" departSpeed="15"/>
    <vehicle id="SN_2" type="car" route="SN" depart="10" departSpeed="15"/>
    <vehicle id="WETop_3" type="car" route="WETop" depart="11" departSpeed="15"/>
    <vehicle id="SN_4" type="car" route="SN" depart="13" departSpeed="15"/>
    <vehicle id="NS_5" type="car" route="NS" depart="14" departSpeed="15"/>
    <vehicle id="EWBottom_6" type="car" route="EWBottom" depart="16" departSpeed="15"/>
    <vehicle id="NS_7" type="car" route="NS" depart="17" departSpeed="15"/>
    <vehicle id="t6_8" type="car" route="t6" depart="17" departSpeed="15"/>
    <vehicle id="WEBottom_9" type="car" route="WEBottom" depart="21" departSpeed="15"/>
    <vehicle id="EWTop_10" type="car" route="EWTop" depart="22" departSpeed="15"/>
    <vehicle id="EWBottom_11" type="car" route="EWBottom" depart="23" departSpeed="15"/>
    <vehicle id="WETop_12" type="car" route="WETop" depart="28" departSpeed="15"/>
    <vehicle id="t4_13" type="car" route="t4" depart="28" departSpeed="15"/>
    <vehicle id="WEBottom_14" type="car" route="WEBottom" depart="34" departSpeed="15"/>
    <vehicle id="EWTop_15" type="car" route="EWTop" depart="35" departSpeed="15"/>
    <vehicle id="t3_16" type="car" route="t3" depart="35" departSpeed="15"/>
    <vehicle id="t6_17" type="car" route="t6" depart="36" departSpeed="15"/>
    <vehicle id="t6_18" type="car" route="t6" depart="37" departSpeed="15"/>
    <vehicle id="t4_19" type="car" route="t4" depart="38" departSpeed="15"/>
    <vehicle id="WETop_20" type="car" route="WETop" depart="42" departSpeed="15"/>
    <vehicle id="t5_21" type="car" route="t5" depart="42" departSpeed="15"/>
    <vehicle id="t4_22" type="car" route="t4" depart="44" departSpeed="15"/>
    <vehicle id="WEBottom_23" type="car" route="WEBottom" depart="46" departSpeed="15"/>
    <vehicle id="EWBottom_24" type="car" route="EWBottom" depart="47" departSpeed="15"/>
    <vehicle id="t5_25" type="car" route="t5" depart="48" departSpeed="15"/>
    <vehicle id="EWBottom_26" type="car" route="EWBottom" depart="51" departSpeed="15"/>
    <vehicle id="t3_27" type="car" route="t3" depart="53" departSpeed="15"/>
    <vehicle id="t3_28" type="car" route="t3" depart="54" departSpeed="15"/>
    <vehicle id="NS_29" type="car" route="NS" depart="59" departSpeed="15"/>
    <vehicle id="WEBottom_30" type="car" route="WEBottom" depart="60" departSpeed="15"/>
    <vehicle id="t4_31" type="car" route="t4" depart="60" departSpeed="15"/>
    <vehicle id="NS_32" type="car" route="NS" depart="61" departSpeed="15"/>
    <vehicle id="t6_33" type="car" route="t6" depart="62" departSpeed="15"/>
    <vehicle id="t5_34" type="car" route="t5" depart="68" departSpeed="15"/>
    <vehicle id="NS_35" type="car" route="NS" depart="69" departSpeed="15"/>
    <vehicle id="t5_36" type="car" route="t5" depart="69" departSpeed="15"/>
    <vehicle id="EWTop_37" type="car" route="EWTop" depart="72" departSpeed="15"/>
    <vehicle id="t2_38" type="car" route="t2" depart="72" departSpeed="15"/>
    <vehicle id="EWBottom_39" type="car" route="EWBottom" depart="74" departSpeed="15"/>
    <vehicle id="EWTop_40" type="car" route="EWTop" depart="75" departSpeed="15"/>
    <vehicle id="WEBottom_41" type="car" route="WEBottom" depart="75" departSpeed="15"/>
    <vehicle id="WEBottom_42" type="car" route="WEBottom" depart="76" departSpeed="15"/>
    <vehicle id="WEBottom_43" type="car" route="WEBottom" depart="77" departSpeed="15"/>
    <vehicle id="t4_44" type="car" route="t4" depart="80" departSpeed="15"/>
    <vehicle id="t2_45" type="car" route="t2" depart="84" departSpeed="15"/>
    <vehicle id="WEBottom_46" type="car" route="WEBottom" depart="85" departSpeed="15"/>
    <vehicle id="t6_47" type="car" route="t6" depart="86" departSpeed="15"/>
    <vehicle id="WETop_48" type="car" route="WETop" depart="87" departSpeed="15"/>
    <vehicle id="EWBottom_49" type="car" route="EWBottom" depart="88" departSpeed="15"/>
    <vehicle id="WETop_50" type="car" route="WETop" depart="92" departSpeed="15"/>
    <vehicle id="t5_51" type="car" route="t5" depart="95" departSpeed="15"/>
    <vehicle id="WEBottom_52" type="car" route="WEBottom" depart="97" departSpeed="15"/>
    <vehicle id="WETop_53" type="car" route="WETop" depart="100" departSpeed="15"/>
    <vehicle id="WEBottom_54" type="car" route="WEBottom" depart="100" departSpeed="15"/>
    <vehicle id="t2_55" type="car" route="t2" depart="100" departSpeed="15"/>
    <vehicle id="WETop_56" type="car" route="WETop" depart="101" departSpeed="15"/>
    <vehicle id="EWTop_57" type="car" route="EWTop" depart="103" departSpeed="15"/>
    <vehicle id="t5_58" type="car" route="t5" depart="103" departSpeed="15"/>
    <vehicle id="NS_59" type="car" route="NS" depart="104" departSpeed="15"/>
    <vehicle id="t2_60" type="car" route="t2" depart="104" departSpeed="15"/>
    <vehicle id="t4_61" type="car" route="t4" depart="104" departSpeed="15"/>
    <vehicle id="t5_62" type="car" route="t5" depart="107" departSpeed="15"/>
    <vehicle id="EWTop_63" type="car" route="EWTop" depart="109" departSpeed="15"/>
    <vehicle id="t4_64" type="car" route="t4" depart="113" departSpeed="15"/>
    <vehicle id="t4_65" type="car" route="t4" depart="114" departSpeed="15"/>
    <vehicle id="t2_66" type="car" route="t2" depart="118" departSpeed="15"/>
    <vehicle id="t3_67" type="car" route="t3" depart="120" departSpeed="15"/>
    <vehicle id="t2_68" type="car" route="t2" depart="122" departSpeed="15"/>
    <vehicle id="t6_69" type="car" route="t6" depart="125" departSpeed="15"/>
    <vehicle id="t3_70" type="car" route="t3" depart="127" departSpeed="15"/>
    <vehicle id="t6_71" type="car" route="t6" depart="129" departSpeed="15"/>
    <vehicle id="t4_72" type="car" route="t4" depart="130" departSpeed="15"/>
    <vehicle id="t5_73" type="car" route="t5" depart="134" departSpeed="15"/>
    <vehicle id="t6_74" type="car" route="t6" depart="139" departSpeed="15"/>
    <vehicle id="t3_75" type="car" route="t3" depart="142" departSpeed="15"/>
    <vehicle id="t4_76" type="car" route="t4" depart="143" departSpeed="15"/>
    <vehicle id="t6_77" type="car" route="t6" depart="144" departSpeed="15"/>
    <vehicle id="NS_78" type="car" route="NS" depart="148" departSpeed="15"/>
    <vehicle id="EWTop_79" type="car" route="EWTop" depart="153" departSpeed="15"/>
    <vehicle id="t2_80" type="car" route="t2" depart="153" departSpeed="15"/>
    <vehicle id="t4_81" type="car" route="t4" depart="153" departSpeed="15"/>
    <vehicle id="t6_82" type="car" route="t6" depart="153" departSpeed="15"/>
    <vehicle id="EWBottom_83" type="car" route="EWBottom" depart="154" departSpeed="15"/>
    <vehicle id="t6_84" type="car" route="t6" depart="154" departSpeed="15"/>
    <vehicle id="t2_85" type="car" route="t2" depart="155" departSpeed="15"/>
    <vehicle id="t5_86" type="car" route="t5" depart="155" departSpeed="15"/>
    <vehicle id="WETop_87" type="car" route="WETop" depart="156" departSpeed="15"/>
    <vehicle id="t3_88" type="car" route="t3" depart="158" departSpeed="15"/>
    <vehicle id="WETop_89" type="car" route="WETop" depart="159" departSpeed="15"/>
    <vehicle id="t5_90" type="car" route="t5" depart="159" departSpeed="15"/>
    <vehicle id="NS_91" type="car" route="NS" depart="160" departSpeed="15"/>
    <vehicle id="EWBottom_92" type="car" route="EWBottom" depart="162" departSpeed="15"/>
    <vehicle id="t3_93" type="car" route="t3" depart="162" departSpeed="15"/>
    <vehicle id="t3_94" type="car" route="t3" depart="165" departSpeed="15"/>
    <vehicle id="EWTop_95" type="car" route="EWTop" depart="172" departSpeed="15"/>
    <vehicle id="EWBottom_96" type="car" route="EWBottom" depart="174" departSpeed="15"/>
    <vehicle id="t6_97" type="car" route="t6" depart="174" departSpeed="15"/>
    <vehicle id="WETop_98" type="car" route="WETop" depart="178" departSpeed="15"/>
    <vehicle id="t5_99" type="car" route="t5" depart="178" departSpeed="15"/>
    <vehicle id="t2_100" type="car" route="t2" depart="181" departSpeed="15"/>
    <vehicle id="WEBottom_101" type="car" route="WEBottom" depart="184" departSpeed="15"/>
    <vehicle id="EWBottom_102" type="car" route="EWBottom" depart="184" departSpeed="15"/>
    <vehicle id="EWTop_103" type="car" route="EWTop" depart="185" departSpeed="15"/>
    <vehicle id="t2_104" type="car" route="t2" depart="188" departSpeed="15"/>
    <vehicle id="WETop_105" type="car" route="WETop" depart="189" departSpeed="15"/>
    <vehicle id="EWBottom_106" type="car" route="EWBottom" depart="192" departSpeed="15"/>
    <vehicle id="EWTop_107" type="car" route="EWTop" depart="193" departSpeed="15"/>
    <vehicle id="SN_108" type="car" route="SN" depart="193" departSpeed="15"/>
    <vehicle id="t6_109" type="car" route="t6" depart="194" departSpeed="15"/>
    <vehicle id="t2_110" type="car" route="t2" depart="198" departSpeed="15"/>
    <vehicle id="EWTop_111" type="car" route="EWTop" depart="199" departSpeed="15"/>
    <vehicle id="WETop_112" type="car" route="WETop" depart="200" departSpeed="15"/>
    <vehicle id="SN_113" type="car" route="SN" depart="202" departSpeed="15"/>
    <vehicle id="EWTop_114" type="car" route="EWTop" depart="203" departSpeed="15"/>
    <vehicle id="WEBottom_115" type="car" route="WEBottom" depart="208" departSpeed="15"/>
    <vehicle id="NS_116" type="car" route="NS" depart="208" departSpeed="15"/>
    <vehicle id="NS_117" type="car" route="NS" depart="209" departSpeed="15"/>
    <vehicle id="WEBottom_118" type="car" route="WEBottom" depart="213" departSpeed="15"/>
    <vehicle id="WETop_119" type="car" route="WETop" depart="214" departSpeed="15"/>
    <vehicle id="SN_120" type="car" route="SN" depart="216" departSpeed="15"/>
    <vehicle id="t4_121" type="car" route="t4" depart="222" departSpeed="15"/>
    <vehicle id="WETop_122" type="car" route="WETop" depart="224" departSpeed="15"/>
    <vehicle id="EWBottom_123" type="car" route="EWBottom" depart="227" departSpeed="15"/>
    <vehicle id="EWTop_124" type="car" route="EWTop" depart="228" departSpeed="15"/>
    <vehicle id="SN_125" type="car" route="SN" depart="228" departSpeed="15"/>
    <vehicle id="EWTop_126" type="car" route="EWTop" depart="232" departSpeed="15"/>
    <vehicle id="SN_127" type="car" route="SN" depart="232" departSpeed="15"/>
    <vehicle id="EWTop_128" type="car" route="EWTop" depart="233" departSpeed="15"/>
    <vehicle id="t4_129" type="car" route="t4" depart="234" departSpeed="15"/>
    <vehicle id="EWTop_130" type="car" route="EWTop" depart="235" departSpeed="15"/>
    <vehicle id="EWTop_131" type="car" route="EWTop" depart="238" departSpeed="15"/>
    <vehicle id="t6_132" type="car" route="t6" depart="239" departSpeed="15"/>
    <vehicle id="EWTop_133" type="car" route="EWTop" depart="240" departSpeed="15"/>
    <vehicle id="WETop_134" type="car" route="WETop" depart="241" departSpeed="15"/>
    <vehicle id="t2_135" type="car" route="t2" depart="242" departSpeed="15"/>
    <vehicle id="t5_136" type="car" route="t5" depart="242" departSpeed="15"/>
    <vehicle id="EWBottom_137" type="car" route="EWBottom" depart="248" departSpeed="15"/>
    <vehicle id="t3_138" type="car" route="t3" depart="250" departSpeed="15"/>
    <vehicle id="t5_139" type="car" route="t5" depart="250" departSpeed="15"/>
    <vehicle id="EWTop_140" type="car" route="EWTop" depart="251" departSpeed="15"/>
    <vehicle id="EWTop_141" type="car" route="EWTop" depart="252" departSpeed="15"/>
    <vehicle id="SN_142" type="car" route="SN" depart="253" departSpeed="15"/>
    <vehicle id="t3_143" type="car" route="t3" depart="256" departSpeed="15"/>
    <vehicle id="EWBottom_144" type="car" route="EWBottom" depart="259" departSpeed="15"/>
    <vehicle id="t4_145" type="car" route="t4" depart="261" departSpeed="15"/>
    <vehicle id="WETop_146" type="car" route="WETop" depart="265" departSpeed="15"/>
    <vehicle id="WEBottom_147" type="car" route="WEBottom" depart="269" departSpeed="15"/>
    <vehicle id="t6_148" type="car" route="t6" depart="269" departSpeed="15"/>
    <vehicle id="t3_149" type="car" route="t3" depart="270" departSpeed="15"/>
    <vehicle id="SN_150" type="car" route="SN" depart="276" departSpeed="15"/>
    <vehicle id="t2_151" type="car" route="t2" depart="277" departSpeed="15"/>
    <vehicle id="WETop_152" type="car" route="WETop" depart="279" departSpeed="15"/>
    <vehicle id="t2_153" type="car" route="t2" depart="279" departSpeed="15"/>
    <vehicle id="t2_154" type="car" route="t2" depart="280" departSpeed="15"/>
    <vehicle id="t3_155" type="car" route="t3" depart="282" departSpeed="15"/>
    <vehicle id="SN_156" type="car" route="SN" depart="283" departSpeed="15"/>
    <vehicle id="t4_157" type="car" route="t4" depart="284" departSpeed="15"/>
    <vehicle id="t6_158" type="car" route="t6" depart="284" departSpeed="15"/>
    <vehicle id="EWTop_159" type="car" route="EWTop" depart="287" departSpeed="15"/>
    <vehicle id="EWTop_160" type="car" route="EWTop" depart="288" departSpeed="15"/>
    <vehicle id="t2_161" type="car" route="t2" depart="289" departSpeed="15"/>
    <vehicle id="EWTop_162" type="car" route="EWTop" depart="290" departSpeed="15"/>
    <vehicle id="t3_163" type="car" route="t3" depart="290" departSpeed="15"/>
    <vehicle id="t5_164" type="car" route="t5" depart="291" departSpeed="15"/>
    <vehicle id="SN_165" type="car" route="SN" depart="292" departSpeed="15"/>
    <vehicle id="t2_166" type="car" route="t2" depart="295" departSpeed="15"/>
    <vehicle id="t3_167" type="car" route="t3" depart="295" departSpeed="15"/>
    <vehicle id="t5_168" type="car" route="t5" depart="295" departSpeed="15"/>
    <vehicle id="t3_169" type="car" route="t3" depart="297" departSpeed="15"/>
    <vehicle id="t5_170" type="car" route="t5" depart="297" departSpeed="15"/>
    <vehicle id="t3_171" type="car" route="t3" depart="300" departSpeed="15"/>
    <vehicle id="EWBottom_172" type="car" route="EWBottom" depart="303" departSpeed="15"/>
    <vehicle id="NS_173" type="car" route="NS" depart="308" departSpeed="15"/>
    <vehicle id="t2_174" type="car" route="t2" depart="310" departSpeed="15"/>
    <vehicle id="NS_175" type="car" route="NS" depart="312" departSpeed="15"/>
    <vehicle id="t4_176" type="car" route="t4" depart="312" departSpeed="15"/>
    <vehicle id="WETop_177" type="car" route="WETop" depart="314" departSpeed="15"/>
    <vehicle id="t2_178" type="car" route="t2" depart="314" departSpeed="15"/>
    <vehicle id="t4_179" type="car" route="t4" depart="315" departSpeed="15"/>
    <vehicle id="WEBottom_180" type="car" route="WEBottom" depart="317" departSpeed="15"/>
    <vehicle id="EWBottom_181" type="car" route="EWBottom" depart="318" departSpeed="15"/>
    <vehicle id="EWBottom_182" type="car" route="EWBottom" depart="319" departSpeed="15"/>
    <vehicle id="t4_183" type="car" route="t4" depart="320" departSpeed="15"/>
    <vehicle id="SN_184" type="car" route="SN" depart="321" departSpeed="15"/>
    <vehicle id="EWBottom_185" type="car" route="EWBottom" depart="325" departSpeed="15"/>
    <vehicle id="t6_186" type="car" route="t6" depart="325" departSpeed="15"/>
    <vehicle id="t5_187" type="car" route="t5" depart="326" departSpeed="15"/>
    <vehicle id="WETop_188" type="car" route="WETop" depart="327" departSpeed="15"/>
    <vehicle id="t6_189" type="car" route="t6" depart="328" departSpeed="15"/>
    <vehicle id="WEBottom_190" type="car" route="WEBottom" depart="335" departSpeed="15"/>
    <vehicle id="NS_191" type="car" route="NS" depart="336" departSpeed="15"/>
    <vehicle id="t2_192" type="car" route="t2" depart="336" departSpeed="15"/>
    <vehicle id="EWBottom_193" type="car" route="EWBottom" depart="341" departSpeed="15"/>
    <vehicle id="t3_194" type="car" route="t3" depart="342" departSpeed="15"/>
    <vehicle id="t6_195" type="car" route="t6" depart="342" departSpeed="15"/>
    <vehicle id="SN_196" type="car" route="SN" depart="343" departSpeed="15"/>
    <vehicle id="EWTop_197" type="car" route="EWTop" depart="345" departSpeed="15"/>
    <vehicle id="t2_198" type="car" route="t2" depart="346" departSpeed="15"/>
    <vehicle id="WETop_199" type="car" route="WETop" depart="347" departSpeed="15"/>
    <vehicle id="WEBottom_200" type="car" route="WEBottom" depart="347" departSpeed="15"/>
    <vehicle id="NS_201" type="car" route="NS" depart="347" departSpeed="15"/>
    <vehicle id="t4_202" type="car" route="t4" depart="350" departSpeed="15"/>
    <vehicle id="t5_203" type="car" route="t5" depart="352" departSpeed="15"/>
    <vehicle id="WEBottom_204" type="car" route="WEBottom" depart="355" departSpeed="15"/>
    <vehicle id="WETop_205" type="car" route="WETop" depart="358" departSpeed="15"/>
    <vehicle id="WETop_206" type="car" route="WETop" depart="362" departSpeed="15"/>
    <vehicle id="EWTop_207" type="car" route="EWTop" depart="362" departSpeed="15"/>
    <vehicle id="t6_208" type="car" route="t6" depart="362" departSpeed="15"/>
    <vehicle id="SN_209" type="car" route="SN" depart="366" departSpeed="15"/>
    <vehicle id="t6_210" type="car" route="t6" depart="366" departSpeed="15"/>
    <vehicle id="t4_211" type="car" route="t4" depart="368" departSpeed="15"/>
    <vehicle id="NS_212" type="car" route="NS" depart="369" departSpeed="15"/>
    <vehicle id="t2_213" type="car" route="t2" depart="369" departSpeed="15"/>
    <vehicle id="WETop_214" type="car" route="WETop" depart="371" departSpeed="15"/>
    <vehicle id="t4_215" type="car" route="t4" depart="373" departSpeed="15"/>
    <vehicle id="t5_216" type="car" route="t5" depart="373" departSpeed="15"/>
    <vehicle id="WETop_217" type="car" route="WETop" depart="376" departSpeed="15"/>
    <vehicle id="t2_218" type="car" route="t2" depart="378" departSpeed="15"/>
    <vehicle id="WETop_219" type="car" route="WETop" depart="379" departSpeed="15"/>
    <vehicle id="t2_220" type="car" route="t2" depart="380" departSpeed="15"/>
    <vehicle id="t6_221" type="car" route="t6" depart="383" departSpeed="15"/>
    <vehicle id="EWTop_222" type="car" route="EWTop" depart="385" departSpeed="15"/>
    <vehicle id="t5_223" type="car" route="t5" depart="388" departSpeed="15"/>
    <vehicle id="WETop_224" type="car" route="WETop" depart="390" departSpeed="15"/>
    <vehicle id="NS_225" type="car" route="NS" depart="390" departSpeed="15"/>
    <vehicle id="EWTop_226" type="car" route="EWTop" depart="391" departSpeed="15"/>
    <vehicle id="t3_227" type="car" route="t3" depart="394" departSpeed="15"/>
    <vehicle id="WETop_228" type="car" route="WETop" depart="398" departSpeed="15"/>
    <vehicle id="t2_229" type="car" route="t2" depart="398" departSpeed="15"/>
    <vehicle id="WEBottom_230" type="car" route="WEBottom" depart="399" departSpeed="15"/>
    <vehicle id="t5_231" type="car" route="t5" depart="402" departSpeed="15"/>
    <vehicle id="NS_232" type="car" route="NS" depart="405" departSpeed="15"/>
    <vehicle id="t5_233" type="car" route="t5" depart="405" departSpeed="15"/>
    <vehicle id="EWBottom_234" type="car" route="EWBottom" depart="410" departSpeed="15"/>
    <vehicle id="WEBottom_235" type="car" route="WEBottom" depart="411" departSpeed="15"/>
    <vehicle id="NS_236" type="car" route="NS" depart="411" departSpeed="15"/>
    <vehicle id="EWBottom_237" type="car" route="EWBottom" depart="417" departSpeed="15"/>
    <vehicle id="EWBottom_238" type="car" route="EWBottom" depart="418" departSpeed="15"/>
    <vehicle id="SN_239" type="car" route="SN" depart="420" departSpeed="15"/>
    <vehicle id="EWTop_240" type="car" route="EWTop" depart="422" departSpeed="15"/>
    <vehicle id="NS_241" type="car" route="NS" depart="423" departSpeed="15"/>
    <vehicle id="t5_242" type="car" route="t5" depart="426" departSpeed="15"/>
    <vehicle id="t6_243" type="car" route="t6" depart="429" departSpeed="15"/>
    <vehicle id="NS_244" type="car" route="NS" depart="431" departSpeed="15"/>
    <vehicle id="SN_245" type="car" route="SN" depart="432" departSpeed="15"/>
    <vehicle id="t2_246" type="car" route="t2" depart="432" departSpeed="15"/>
    <vehicle id="t2_247" type="car" route="t2" depart="434" departSpeed="15"/>
    <vehicle id="SN_248" type="car" route="SN" depart="435" departSpeed="15"/>
    <vehicle id="t6_249" type="car" route="t6" depart="437" departSpeed="15"/>
    <vehicle id="NS_250" type="car" route="NS" depart="438" departSpeed="15"/>
    <vehicle id="t3_251" type="car" route="t3" depart="442" departSpeed="15"/>
    <vehicle id="EWTop_252" type="car" route="EWTop" depart="447" departSpeed="15"/>
    <vehicle id="t3_253" type="car" route="t3" depart="449" departSpeed="15"/>
    <vehicle id="WEBottom_254" type="car" route="WEBottom" depart="450" departSpeed="15"/>
    <vehicle id="EWBottom_255" type="car" route="EWBottom" depart="450" departSpeed="15"/>
    <vehicle id="t6_256" type="car" route="t6" depart="451" departSpeed="15"/>
    <vehicle id="t3_257" type="car" route="t3" depart="452" departSpeed="15"/>
    <vehicle id="t5_258" type="car" route="t5" depart="452" departSpeed="15"/>
    <vehicle id="t3_259" type="car" route="t3" depart="453" departSpeed="15"/>
    <vehicle id="EWTop_260" type="car" route="EWTop" depart="457" departSpeed="15"/>
    <vehicle id="t5_261" type="car" route="t5" depart="463" departSpeed="15"/>
    <vehicle id="t2_262" type="car" route="t2" depart="464" departSpeed="15"/>
    <vehicle id="t3_263" type="car" route="t3" depart="465" departSpeed="15"/>
    <vehicle id="t5_264" type="car" route="t5" depart="465" departSpeed="15"/>
    <vehicle id="WETop_265" type="car" route="WETop" depart="467" departSpeed="15"/>
    <vehicle id="EWBottom_266" type="car" route="EWBottom" depart="467" departSpeed="15"/>
    <vehicle id="t6_267" type="car" route="t6" depart="468" departSpeed="15"/>
    <vehicle id="t6_268" type="car" route="t6" depart="478" departSpeed="15"/>
    <vehicle id="WETop_269" type="car" route="WETop" depart="481" departSpeed="15"/>
    <vehicle id="t3_270" type="car" route="t3" depart="482" departSpeed="15"/>
    <vehicle id="EWBottom_271" type="car" route="EWBottom" depart="483" departSpeed="15"/>
    <vehicle id="EWTop_272" type="car" route="EWTop" depart="484" departSpeed="15"/>
    <vehicle id="NS_273" type="car" route="NS" depart="485" departSpeed="15"/>
    <vehicle id="NS_274" type="car" route="NS" depart="490" departSpeed="15"/>
    <vehicle id="t2_275" type="car" route="t2" depart="495" departSpeed="15"/>
    <vehicle id="t2_276" type="car" route="t2" depart="496" departSpeed="15"/>
    <vehicle id="WEBottom_277" type="car" route="WEBottom" depart="501" departSpeed="15"/>
    <vehicle id="t3_278" type="car" route="t3" depart="510" departSpeed="15"/>
    <vehicle id="t4_279" type="car" route="t4" depart="510" departSpeed="15"/>
    <vehicle id="SN_280" type="car" route="SN" depart="513" departSpeed="15"/>
    <vehicle id="WEBottom_281" type="car" route="WEBottom" depart="515" departSpeed="15"/>
    <vehicle id="t5_282" type="car" route="t5" depart="517" departSpeed="15"/>
    <vehicle id="t5_283" type="car" route="t5" depart="520" departSpeed="15"/>
    <vehicle id="NS_284" type="car" route="NS" depart="521" departSpeed="15"/>
    <vehicle id="t2_285" type="car" route="t2" depart="524" departSpeed="15"/>
    <vehicle id="t4_286" type="car" route="t4" depart="524" departSpeed="15"/>
    <vehicle id="WEBottom_287" type="car" route="WEBottom" depart="525" departSpeed="15"/>
    <vehicle id="SN_288" type="car" route="SN" depart="525" departSpeed="15"/>
    <vehicle id="EWBottom_289" type="car" route="EWBottom" depart="527" departSpeed="15"/>
    <vehicle id="SN_290" type="car" route="SN" depart="528" departSpeed="15"/>
    <vehicle id="t3_291" type="car" route="t3" depart="529" departSpeed="15"/>
    <vehicle id="t2_292" type="car" route="t2" depart="533" departSpeed="15"/>
    <vehicle id="t4_293" type="car" route="t4" depart="533" departSpeed="15"/>
    <vehicle id="t5_294" type="car" route="t5" depart="533" departSpeed="15"/>
    <vehicle id="NS_295" type="car" route="NS" depart="534" departSpeed="15"/>
    <vehicle id="t4_296" type="car" route="t4" depart="535" departSpeed="15"/>
    <vehicle id="EWBottom_297" type="car" route="EWBottom" depart="537" departSpeed="15"/>
    <vehicle id="t6_298" type="car" route="t6" depart="538" departSpeed="15"/>
    <vehicle id="EWBottom_299" type="car" route="EWBottom" depart="540" departSpeed="15"/>
    <vehicle id="t3_300" type="car" route="t3" depart="545" departSpeed="15"/>
    <vehicle id="t2_301" type="car" route="t2" depart="546" departSpeed="15"/>
    <vehicle id="t4_302" type="car" route="t4" depart="549" departSpeed="15"/>
    <vehicle id="SN_303" type="car" route="SN" depart="550" departSpeed="15"/>
    <vehicle id="WETop_304" type="car" route="WETop" depart="557" departSpeed="15"/>
    <vehicle id="t4_305" type="car" route="t4" depart="558" departSpeed="15"/>
    <vehicle id="WETop_306" type="car" route="WETop" depart="560" departSpeed="15"/>
    <vehicle id="EWTop_307" type="car" route="EWTop" depart="566" departSpeed="15"/>
    <vehicle id="SN_308" type="car" route="SN" depart="566" departSpeed="15"/>
    <vehicle id="WETop_309" type="car" route="WETop" depart="569" departSpeed="15"/>
    <vehicle id="SN_310" type="car" route="SN" depart="569" departSpeed="15"/>
    <vehicle id="SN_311" type="car" route="SN" depart="570" departSpeed="15"/>
    <vehicle id="SN_312" type="car" route="SN" depart="571" departSpeed="15"/>
    <vehicle id="t2_313" type="car" route="t2" depart="572" departSpeed="15"/>
    <vehicle id="EWTop_314" type="car" route="EWTop" depart="575" departSpeed="15"/>
    <vehicle id="NS_315" type="car" route="NS" depart="575" departSpeed="15"/>
    <vehicle id="t6_316" type="car" route="t6" depart="575" departSpeed="15"/>
    <vehicle id="WEBottom_317" type="car" route="WEBottom" depart="580" departSpeed="15"/>
    <vehicle id="t5_318" type="car" route="t5" depart="593" departSpeed="15"/>
    <vehicle id="EWTop_319" type="car" route="EWTop" depart="596" departSpeed="15"/>
    <vehicle id="WEBottom_320" type="car" route="WEBottom" depart="596" departSpeed="15"/>
    <vehicle id="WETop_321" type="car" route="WETop" depart="602" departSpeed="15"/>
    <vehicle id="NS_322" type="car" route="NS" depart="602" departSpeed="15"/>
    <vehicle id="t2_323" type="car" route="t2" depart="604" departSpeed="15"/>
    <vehicle id="t3_324" type="car" route="t3" depart="604" departSpeed="15"/>
    <vehicle id="t2_325" type="car" route="t2" depart="606" departSpeed="15"/>
    <vehicle id="NS_326" type="car" route="NS" depart="608" departSpeed="15"/>
    <vehicle id="WEBottom_327" type="car" route="WEBottom" depart="613" departSpeed="15"/>
    <vehicle id="t5_328" type="car" route="t5" depart="613" departSpeed="15"/>
    <vehicle id="EWBottom_329" type="car" route="EWBottom" depart="614" departSpeed="15"/>
    <vehicle id="EWTop_330" type="car" route="EWTop" depart="625" departSpeed="15"/>
    <vehicle id="SN_331" type="car" route="SN" depart="627" departSpeed="15"/>
    <vehicle id="SN_332" type="car" route="SN" depart="630" departSpeed="15"/>
    <vehicle id="WETop_333" type="car" route="WETop" depart="631" departSpeed="15"/>
    <vehicle id="t6_334" type="car" route="t6" depart="631" departSpeed="15"/>
    <vehicle id="EWBottom_335" type="car" route="EWBottom" depart="632" departSpeed="15"/>
    <vehicle id="t2_336" type="car" route="t2" depart="632" departSpeed="15"/>
    <vehicle id="t3_337" type="car" route="t3" depart="633" departSpeed="15"/>
    <vehicle id="t6_338" type="car" route="t6" depart="633" departSpeed="15"/>
    <vehicle id="t5_339" type="car" route="t5" depart="634" departSpeed="15"/>
    <vehicle id="t2_340" type="car" route="t2" depart="635" departSpeed="15"/>
    <vehicle id="EWTop_341" type="car" route="EWTop" depart="644" departSpeed="15"/>
    <vehicle id="WETop_342" type="car" route="WETop" depart="645" departSpeed="15"/>
    <vehicle id="t4_343" type="car" route="t4" depart="649" departSpeed="15"/>
    <vehicle id="t6_344" type="car" route="t6" depart="649" departSpeed="15"/>
    <vehicle id="NS_345" type="car" route="NS" depart="651" departSpeed="15"/>
    <vehicle id="t2_346" type="car" route="t2" depart="651" departSpeed="15"/>
    <vehicle id="NS_347" type="car" route="NS" depart="652" departSpeed="15"/>
    <vehicle id="WEBottom_348" type="car" route="WEBottom" depart="655" departSpeed="15"/>
    <vehicle id="WEBottom_349" type="car" route="WEBottom" depart="656" departSpeed="15"/>
    <vehicle id="t6_350" type="car" route="t6" depart="656" departSpeed="15"/>
    <vehicle id="NS_351" type="car" route="NS" depart="658" departSpeed="15"/>
    <vehicle id="EWBottom_352" type="car" route="EWBottom" depart="660" departSpeed="15"/>
    <vehicle id="t6_353" type="car" route="t6" depart="660" departSpeed="15"/>
    <vehicle id="t3_354" type="car" route="t3" depart="661" departSpeed="15"/>