<routes>
                               <vType id="car" accel="1.0" decel="4.5" sigma="0.7" length="5" minGap="3" maxSpeed="15" guiShape="passenger"/>

                               <route id="WETop" edges="5i 1i 2o" />
                               <route id="EWTop" edges="2i 1o 5o" />
                               <route id="NS" edges="4i 3o 8i" />
                               <route id="SN" edges="8o 3i 4o" />
                               <route id="WEBottom" edges="7o 11o" />
                               <route id="EWBottom" edges="11i 7i" />

                               <route id="t2" edges="8o 7i" />
                               <route id="t3" edges="4i 1o 6i" />
                               <route id="t4" edges="7o 3i 2o" />
                               <route id="t5" edges="6o 1i 4o" />
                               <route id="t6" edges="5i 1i 3o 11o" />
                               
    <vehicle id="t3_0" type="car" route="t3" depart="0" departSpeed="5"/>
    <vehicle id="t6_1" type="car" route="t6" depart="0" departSpeed="5"/>
    <vehicle id="WETop_2" type="car" route="WETop" depart="1" departSpeed="5"/>
    <vehicle id="t3_3" type="car" route="t3" depart="1" departSpeed="5"/>
    <vehicle id="EWTop_4" type="car" route="EWTop" depart="2" departSpeed="5"/>
    <vehicle id="t6_5" type="car" route="t6" depart="2" departSpeed="5"/>
    <vehicle id="EWTop_6" type="car" route="EWTop" depart="3" departSpeed="5"/>
    <vehicle id="t4_7" type="car" route="t4" depart="3" departSpeed="5"/>
    <vehicle id="WETop_8" type="car" route="WETop" depart="4" departSpeed="5"/>
    <vehicle id="WEBottom_9" type="car" route="WEBottom" depart="4" departSpeed="5"/>
    <vehicle id="NS_10" type="car" route="NS" depart="5" departSpeed="5"/>
    <vehicle id="WEBottom_11" type="car" route="WEBottom" depart="6" departSpeed="5"/>
    <vehicle id="WETop_12" type="car" route="WETop" depart="7" departSpeed="5"/>
    <vehicle id="t6_13" type="car" route="t6" depart="7" departSpeed="5"/>
    <vehicle id="NS_14" type="car" route="NS" depart="8" departSpeed="5"/>
    <vehicle id="SN_15" type="car" route="SN" depart="8" departSpeed="5"/>
    <vehicle id="t4_16" type="car" route="t4" depart="9" departSpeed="5"/>
    <vehicle id="NS_17" type="car" route="NS" depart="10" departSpeed="5"/>
    <vehicle id="t3_18" type="car" route="t3" depart="11" departSpeed="5"/>
    <vehicle id="NS_19" type="car" route="NS" depart="12" departSpeed="5"/>
    <vehicle id="t4_20" type="car" route="t4" depart="12" departSpeed="5"/>
    <vehicle id="WEBottom_21" type="car" route="WEBottom" depart="13" departSpeed="5"/>
    <vehicle id="t4_22" type="car" route="t4" depart="13" departSpeed="5"/>
    <vehicle id="WETop_23" type="car" route="WETop" depart="15" departSpeed="5"/>
    <vehicle id="EWTop_24" type="car" route="EWTop" depart="15" departSpeed="5"/>
    <vehicle id="WETop_25" type="car" route="WETop" depart="16" departSpeed="5"/>
    <vehicle id="t4_26" type="car" route="t4" depart="16" departSpeed="5"/>
    <vehicle id="t5_27" type="car" route="t5" depart="16" departSpeed="5"/>
    <vehicle id="EWTop_28" type="car" route="EWTop" depart="19" departSpeed="5"/>
    <vehicle id="EWBottom_29" type="car" route="EWBottom" depart="19" departSpeed="5"/>
    <vehicle id="t3_30" type="car" route="t3" depart="20" departSpeed="5"/>
    <vehicle id="t2_31" type="car" route="t2" depart="21" departSpeed="5"/>
    <vehicle id="WEBottom_32" type="car" route="WEBottom" depart="22" departSpeed="5"/>
    <vehicle id="t2_33" type="car" route="t2" depart="22" departSpeed="5"/>
    <vehicle id="NS_34" type="car" route="NS" depart="23" departSpeed="5"/>
    <vehicle id="SN_35" type="car" route="SN" depart="23" departSpeed="5"/>
    <vehicle id="t5_36" type="car" route="t5" depart="23" departSpeed="5"/>
    <vehicle id="t3_37" type="car" route="t3" depart="24" departSpeed="5"/>
    <vehicle id="WETop_38" type="car" route="WETop" depart="26" departSpeed="5"/>
    <vehicle id="WEBottom_39" type="car" route="WEBottom" depart="28" departSpeed="5"/>
    <vehicle id="t6_40" type="car" route="t6" depart="28" departSpeed="5"/>
    <vehicle id="t2_41" type="car" route="t2" depart="29" departSpeed="5"/>
    <vehicle id="NS_42" type="car" route="NS" depart="32" departSpeed="5"/>
    <vehicle id="WEBottom_43" type="car" route="WEBottom" depart="33" departSpeed="5"/>
    <vehicle id="EWBottom_44" type="car" route="EWBottom" depart="36" departSpeed="5"/>
    <vehicle id="t3_45" type="car" route="t3" depart="36" departSpeed="5"/>
    <vehicle id="WETop_46" type="car" route="WETop" depart="38" departSpeed="5"/>
    <vehicle id="t2_47" type="car" route="t2" depart="39" departSpeed="5"/>
    <vehicle id="t4_48" type="car" route="t4" depart="41" departSpeed="5"/>
    <vehicle id="WEBottom_49" type="car" route="WEBottom" depart="43" departSpeed="5"/>
    <vehicle id="NS_50" type="car" route="NS" depart="43" departSpeed="5"/>
    <vehicle id="t5_51" type="car" route="t5" depart="43" departSpeed="5"/>
    <vehicle id="SN_52" type="car" route="SN" depart="45" departSpeed="5"/>
    <vehicle id="t2_53" type="car" route="t2" depart="45" departSpeed="5"/>
    <vehicle id="SN_54" type="car" route="SN" depart="46" departSpeed="5"/>
    <vehicle id="t3_55" type="car" route="t3" depart="47" departSpeed="5"/>
    <vehicle id="t4_56" type="car" route="t4" depart="48" departSpeed="5"/>
    <vehicle id="NS_57" type="car" route="NS" depart="49" departSpeed="5"/>
    <vehicle id="t3_58" type="car" route="t3" depart="49" departSpeed="5"/>
    <vehicle id="WEBottom_59" type="car" route="WEBottom" depart="50" departSpeed="5"/>
    <vehicle id="SN_60" type="car" route="SN" depart="51" departSpeed="5"/>
    <vehicle id="WETop_61" type="car" route="WETop" depart="52" departSpeed="5"/>
    <vehicle id="t6_62" type="car" route="t6" depart="53" departSpeed="5"/>
    <vehicle id="WETop_63" type="car" route="WETop" depart="54" departSpeed="5"/>
    <vehicle id="t2_64" type="car" route="t2" depart="54" departSpeed="5"/>
    <vehicle id="t6_65" type="car" route="t6" depart="54" departSpeed="5"/>
    <vehicle id="NS_66" type="car" route="NS" depart="55" departSpeed="5"/>
    <vehicle id="t5_67" type="car" route="t5" depart="55" departSpeed="5"/>
    <vehicle id="t3_68" type="car" route="t3" depart="56" departSpeed="5"/>
    <vehicle id="NS_69" type="car" route="NS" depart="58" departSpeed="5"/>
    <vehicle id="t6_70" type="car" route="t6" depart="58" departSpeed="5"/>
    <vehicle id="EWTop_71" type="car" route="EWTop" depart="61" departSpeed="5"/>
    <vehicle id="WETop_72" type="car" route="WETop" depart="63" departSpeed="5"/>
    <vehicle id="EWTop_73" type="car" route="EWTop" depart="63" departSpeed="5"/>
    <vehicle id="EWBottom_74" type="car" route="EWBottom" depart="63" departSpeed="5"/>
    <vehicle id="t4_75" type="car" route="t4" depart="64" departSpeed="5"/>
    <vehicle id="EWBottom_76" type="car" route="EWBottom" depart="65" departSpeed="5"/>
    <vehicle id="EWTop_77" type="car" route="EWTop" depart="66" departSpeed="5"/>
    <vehicle id="WEBottom_78" type="car" route="WEBottom" depart="66" departSpeed="5"/>
    <vehicle id="NS_79" type="car" route="NS" depart="66" departSpeed="5"/>
    <vehicle id="t3_80" type="car" route="t3" depart="66" departSpeed="5"/>
    <vehicle id="t2_81" type="car" route="t2" depart="68" departSpeed="5"/>
    <vehicle id="t4_82" type="car" route="t4" depart="68" departSpeed="5"/>
    <vehicle id="WEBottom_83" type="car" route="WEBottom" depart="70" departSpeed="5"/>
    <vehicle id="t3_84" type="car" route="t3" depart="70" departSpeed="5"/>
    <vehicle id="WETop_85" type="car" route="WETop" depart="71" departSpeed="5"/>
    <vehicle id="t2_86" type="car" route="t2" depart="71" departSpeed="5"/>
    <vehicle id="t4_87" type="car" route="t4" depart="71" departSpeed="5"/>
    <vehicle id="SN_88" type="car" route="SN" depart="72" departSpeed="5"/>
    <vehicle id="WETop_89" type="car" route="WETop" depart="74" departSpeed="5"/>
    <vehicle id="t6_90" type="car" route="t6" depart="75" departSpeed="5"/>
    <vehicle id="WETop_91" type="car" route="WETop" depart="77" departSpeed="5"/>
    <vehicle id="WEBottom_92" type="car" route="WEBottom" depart="77" departSpeed="5"/>
    <vehicle id="t2_93" type="car" route="t2" depart="77" departSpeed="5"/>
    <vehicle id="t6_94" type="car" route="t6" depart="78" departSpeed="5"/>
    <vehicle id="t5_95" type="car" route="t5" depart="82" departSpeed="5"/>
    <vehicle id="EWBottom_96" type="car" route="EWBottom" depart="83" departSpeed="5"/>
    <vehicle id="t2_97" type="car" route="t2" depart="83" departSpeed="5"/>
    <vehicle id="SN_98" type="car" route="SN" depart="84" departSpeed="5"/>
    <vehicle id="t2_99" type="car" route="t2" depart="84" departSpeed="5"/>
    <vehicle id="SN_100" type="car" route="SN" depart="85" departSpeed="5"/>
    <vehicle id="t6_101" type="car" route="t6" depart="85" departSpeed="5"/>
    <vehicle id="t4_102" type="car" route="t4" depart="87" departSpeed="5"/>
    <vehicle id="EWBottom_103" type="car" route="EWBottom" depart="88" departSpeed="5"/>
    <vehicle id="EWBottom_104" type="car" route="EWBottom" depart="89" departSpeed="5"/>
    <vehicle id="t6_105" type="car" route="t6" depart="90" departSpeed="5"/>
    <vehicle id="t6_106" type="car" route="t6" depart="91" departSpeed="5"/>
    <vehicle id="EWBottom_107" type="car" route="EWBottom" depart="92" departSpeed="5"/>
    <vehicle id="NS_108" type="car" route="NS" depart="94" departSpeed="5"/>
    <vehicle id="t6_109" type="car" route="t6" depart="95" departSpeed="5"/>
    <vehicle id="WEBottom_110" type="car" route="WEBottom" depart="97" departSpeed="5"/>
    <vehicle id="t3_111" type="car" route="t3" depart="97" departSpeed="5"/>
    <vehicle id="t4_112" type="car" route="t4" depart="97" departSpeed="5"/>
    <vehicle id="EWTop_113" type="car" route="EWTop" depart="98" departSpeed="5"/>
    <vehicle id="t5_114" type="car" route="t5" depart="98" departSpeed="5"/>
    <vehicle id="WETop_115" type="car" route="WETop" depart="99" departSpeed="5"/>
    <vehicle id="t6_116" type="car" route="t6" depart="99" departSpeed="5"/>
    <vehicle id="WETop_117" type="car" route="WETop" depart="100" departSpeed="5"/>
    <vehicle id="t6_118" type="car" route="t6" depart="101" departSpeed="5"/>
    <vehicle id="NS_119" type="car" route="NS" depart="102" departSpeed="5"/>
    <vehicle id="SN_120" type="car" route="SN" depart="104" departSpeed="5"/>
    <vehicle id="NS_121" type="car" route="NS" depart="105" departSpeed="5"/>
    <vehicle id="SN_122" type="car" route="SN" depart="106" departSpeed="5"/>
    <vehicle id="EWBottom_123" type="car" route="EWBottom" depart="107" departSpeed="5"/>
    <vehicle id="NS_124" type="car" route="NS" depart="107" departSpeed="5"/>
    <vehicle id="NS_125" type="car" route="NS" depart="110" departSpeed="5"/>
    <vehicle id="t3_126" type="car" route="t3" depart="111" departSpeed="5"/>
    <vehicle id="t4_127" type="car" route="t4" depart="111" departSpeed="5"/>
    <vehicle id="t5_128" type="car" route="t5" depart="112" departSpeed="5"/>
    <vehicle id="EWTop_129" type="car" route="EWTop" depart="113" departSpeed="5"/>
    <vehicle id="EWBottom_130" type="car" route="EWBottom" depart="113" departSpeed="5"/>
    <vehicle id="t3_131" type="car" route="t3" depart="114" departSpeed="5"/>
    <vehicle id="t4_132" type="car" route="t4" depart="114" departSpeed="5"/>
    <vehicle id="WEBottom_133" type="car" route="WEBottom" depart="115" departSpeed="5"/>
    <vehicle id="NS_134" type="car" route="NS" depart="115" departSpeed="5"/>
    <vehicle id="SN_135" type="car" route="SN" depart="115" departSpeed="5"/>
    <vehicle id="WEBottom_136" type="car" route="WEBottom" depart="116" departSpeed="5"/>
    <vehicle id="t5_137" type="car" route="t5" depart="116" departSpeed="5"/>
    <vehicle id="t3_138" type="car" route="t3" depart="118" departSpeed="5"/>
    <vehicle id="WETop_139" type="car" route="WETop" depart="121" departSpeed="5"/>
    <vehicle id="WEBottom_140" type="car" route="WEBottom" depart="121" departSpeed="5"/>
    <vehicle id="SN_141" type="car" route="SN" depart="121" departSpeed="5"/>
    <vehicle id="WETop_142" type="car" route="WETop" depart="122" departSpeed="5"/>
    <vehicle id="WETop_143" type="car" route="WETop" depart="123" departSpeed="5"/>
    <vehicle id="t4_144" type="car" route="t4" depart="125" departSpeed="5"/>
    <vehicle id="t5_145" type="car" route="t5" depart="125" departSpeed="5"/>
    <vehicle id="EWBottom_146" type="car" route="EWBottom" depart="126" departSpeed="5"/>
    <vehicle id="t2_147" type="car" route="t2" depart="129" departSpeed="5"/>
    <vehicle id="EWTop_148" type="car" route="EWTop" depart="131" departSpeed="5"/>
    <vehicle id="WEBottom_149" type="car" route="WEBottom" depart="131" departSpeed="5"/>
    <vehicle id="NS_150" type="car" route="NS" depart="132" departSpeed="5"/>
    <vehicle id="t4_151" type="car" route="t4" depart="132" departSpeed="5"/>
    <vehicle id="t2_152" type="car" route="t2" depart="133" departSpeed="5"/>
    <vehicle id="t5_153" type="car" route="t5" depart="133" departSpeed="5"/>
    <vehicle id="t2_154" type="car" route="t2" depart="136" departSpeed="5"/>
    <vehicle id="WEBottom_155" type="car" route="WEBottom" depart="137" departSpeed="5"/>
    <vehicle id="t2_156" type="car" route="t2" depart="139" departSpeed="5"/>
    <vehicle id="NS_157" type="car" route="NS" depart="141" departSpeed="5"/>
    <vehicle id="t5_158" type="car" route="t5" depart="142" departSpeed="5"/>
    <vehicle id="WEBottom_159" type="car" route="WEBottom" depart="143" departSpeed="5"/>
    <vehicle id="t5_160" type="car" route="t5" depart="143" departSpeed="5"/>
    <vehicle id="EWTop_161" type="car" route="EWTop" depart="146" departSpeed="5"/>
    <vehicle id="t6_162" type="car" route="t6" depart="146" departSpeed="5"/>
    <vehicle id="EWBottom_163" type="car" route="EWBottom" depart="147" departSpeed="5"/>
    <vehicle id="t5_164" type="car" route="t5" depart="147" departSpeed="5"/>
    <vehicle id="EWBottom_165" type="car" route="EWBottom" depart="148" departSpeed="5"/>
    <vehicle id="t6_166" type="car" route="t6" depart="150" departSpeed="5"/>
    <vehicle id="t3_167" type="car" route="t3" depart="152" departSpeed="5"/>
    <vehicle id="SN_168" type="car" route="SN" depart="153" departSpeed="5"/>
    <vehicle id="EWBottom_169" type="car" route="EWBottom" depart="154" departSpeed="5"/>
    <vehicle id="NS_170" type="car" route="NS" depart="154" departSpeed="5"/>
    <vehicle id="t2_171" type="car" route="t2" depart="157" departSpeed="5"/>
    <vehicle id="t6_172" type="car" route="t6" depart="157" departSpeed="5"/>
    <vehicle id="EWBottom_173" type="car" route="EWBottom" depart="158" departSpeed="5"/>
    <vehicle id="t4_174" type="car" route="t4" depart="158" departSpeed="5"/>
    <vehicle id="t4_175" type="car" route="t4" depart="159" departSpeed="5"/>
    <vehicle id="EWBottom_176" type="car" route="EWBottom" depart="160" departSpeed="5"/>
    <vehicle id="NS_177" type="car" route="NS" depart="160" departSpeed="5"/>
    <vehicle id="t2_178" type="car" route="t2" depart="161" departSpeed="5"/>
    <vehicle id="t2_179" type="car" route="t2" depart="163" departSpeed="5"/>
    <vehicle id="t2_180" type="car" route="t2" depart="165" departSpeed="5"/>
    <vehicle id="t2_181" type="car" route="t2" depart="167" departSpeed="5"/>
    <vehicle id="t4_182" type="car" route="t4" depart="168" departSpeed="5"/>
    <vehicle id="t3_183" type="car" route="t3" depart="169" departSpeed="5"/>
    <vehicle id="t6_184" type="car" route="t6" depart="169" departSpeed="5"/>
    <vehicle id="WEBottom_185" type="car" route="WEBottom" depart="170" departSpeed="5"/>
    <vehicle id="t6_186" type="car" route="t6" depart="170" departSpeed="5"/>
    <vehicle id="t2_187" type="car" route="t2" depart="171" departSpeed="5"/>
    <vehicle id="t6_188" type="car" route="t6" depart="171" departSpeed="5"/>
    <vehicle id="WETop_189" type="car" route="WETop" depart="172" departSpeed="5"/>
    <vehicle id="WEBottom_190" type="car" route="WEBottom" depart="172" departSpeed="5"/>
    <vehicle id="EWBottom_191" type="car" route="EWBottom" depart="172" departSpeed="5"/>
    <vehicle id="t5_192" type="car" route="t5" depart="172" departSpeed="5"/>
    <vehicle id="EWTop_193" type="car" route="EWTop" depart="173" departSpeed="5"/>
    <vehicle id="t4_194" type="car" route="t4" depart="174" departSpeed="5"/>
    <vehicle id="SN_195" type="car" route="SN" depart="175" departSpeed="5"/>
    <vehicle id="EWBottom_196" type="car" route="EWBottom" depart="177" departSpeed="5"/>
    <vehicle id="NS_197" type="car" route="NS" depart="177" departSpeed="5"/>
    <vehicle id="t5_198" type="car" route="t5" depart="177" departSpeed="5"/>
    <vehicle id="t4_199" type="car" route="t4" depart="178" departSpeed="5"/>
    <vehicle id="t4_200" type="car" route="t4" depart="180" departSpeed="5"/>
    <vehicle id="t5_201" type="car" route="t5" depart="180" departSpeed="5"/>
    <vehicle id="EWTop_202" type="car" route="EWTop" depart="182" departSpeed="5"/>
    <vehicle id="WEBottom_203" type="car" route="WEBottom" depart="182" departSpeed="5"/>
    <vehicle id="t5_204" type="car" route="t5" depart="182" departSpeed="5"/>
    <vehicle id="EWTop_205" type="car" route="EWTop" depart="185" departSpeed="5"/>
    <vehicle id="WETop_206" type="car" route="WETop" depart="186" departSpeed="5"/>
    <vehicle id="NS_207" type="car" route="NS" depart="186" departSpeed="5"/>
    <vehicle id="t6_208" type="car" route="t6" depart="188" departSpeed="5"/>
    <vehicle id="SN_209" type="car" route="SN" depart="189" departSpeed="5"/>
    <vehicle id="t4_210" type="car" route="t4" depart="189" departSpeed="5"/>
    <vehicle id="WETop_211" type="car" route="WETop" depart="191" departSpeed="5"/>
    <vehicle id="WEBottom_212" type="car" route="WEBottom" depart="192" departSpeed="5"/>
    <vehicle id="EWBottom_213" type="car" route="EWBottom" depart="192" departSpeed="5"/>
    <vehicle id="WEBottom_214" type="car" route="WEBottom" depart="193" departSpeed="5"/>
    <vehicle id="EWBottom_215" type="car" route="EWBottom" depart="193" departSpeed="5"/>
    <vehicle id="t4_216" type="car" route="t4" depart="193" departSpeed="5"/>
    <vehicle id="EWTop_217" type="car" route="EWTop" depart="194" departSpeed="5"/>
    <vehicle id="t3_218" type="car" route="t3" depart="195" departSpeed="5"/>
    <vehicle id="EWBottom_219" type="car" route="EWBottom" depart="196" departSpeed="5"/>
    <vehicle id="t2_220" type="car" route="t2" depart="196" departSpeed="5"/>
    <vehicle id="WEBottom_221" type="car" route="WEBottom" depart="198" departSpeed="5"/>
    <vehicle id="EWBottom_222" type="car" route="EWBottom" depart="198" departSpeed="5"/>
    <vehicle id="WEBottom_223" type="car" route="WEBottom" depart="200" departSpeed="5"/>
    <vehicle id="EWBottom_224" type="car" route="EWBottom" depart="201" departSpeed="5"/>
    <vehicle id="SN_225" type="car" route="SN" depart="201" departSpeed="5"/>
    <vehicle id="SN_226" type="car" route="SN" depart="202" departSpeed="5"/>
    <vehicle id="t3_227" type="car" route="t3" depart="202" departSpeed="5"/>
    <vehicle id="t5_228" type="car" route="t5" depart="202" departSpeed="5"/>
    <vehicle id="WEBottom_229" type="car" route="WEBottom" depart="206" departSpeed="5"/>
    <vehicle id="t3_230" type="car" route="t3" depart="206" departSpeed="5"/>
    <vehicle id="EWBottom_231" type="car" route="EWBottom" depart="207" departSpeed="5"/>
    <vehicle id="t2_232" type="car" route="t2" depart="207" departSpeed="5"/>
    <vehicle id="t3_233" type="car" route="t3" depart="208" departSpeed="5"/>
    <vehicle id="t3_234" type="car" route="t3" depart="212" departSpeed="5"/>
    <vehicle id="SN_235" type="car" route="SN" depart="213" departSpeed="5"/>
    <vehicle id="EWTop_236" type="car" route="EWTop" depart="214" departSpeed="5"/>
    <vehicle id="WEBottom_237" type="car" route="WEBottom" depart="214" departSpeed="5"/>
    <vehicle id="t2_238" type="car" route="t2" depart="214" departSpeed="5"/>
    <vehicle id="WETop_239" type="car" route="WETop" depart="215" departSpeed="5"/>
    <vehicle id="SN_240" type="car" route="SN" depart="216" departSpeed="5"/>
    <vehicle id="t4_241" type="car" route="t4" depart="217" departSpeed="5"/>
    <vehicle id="WEBottom_242" type="car" route="WEBottom" depart="219" departSpeed="5"/>
    <vehicle id="t3_243" type="car" route="t3" depart="219" departSpeed="5"/>
    <vehicle id="WETop_244" type="car" route="WETop" depart="220" departSpeed="5"/>
    <vehicle id="WEBottom_245" type="car" route="WEBottom" depart="220" departSpeed="5"/>
    <vehicle id="SN_246" type="car" route="SN" depart="220" departSpeed="5"/>
    <vehicle id="SN_247" type="car" route="SN" depart="221" departSpeed="5"/>
    <vehicle id="SN_248" type="car" route="SN" depart="222" departSpeed="5"/>
    <vehicle id="WETop_249" type="car" route="WETop" depart="224" departSpeed="5"/>
    <vehicle id="WEBottom_250" type="car" route="WEBottom" depart="224" departSpeed="5"/>
    <vehicle id="NS_251" type="car" route="NS" depart="224" departSpeed="5"/>
    <vehicle id="t4_252" type="car" route="t4" depart="224" departSpeed="5"/>
    <vehicle id="t4_253" type="car" route="t4" depart="225" departSpeed="5"/>
    <vehicle id="t6_254" type="car" route="t6" depart="225" departSpeed="5"/>
    <vehicle id="t3_255" type="car" route="t3" depart="227" departSpeed="5"/>
    <vehicle id="NS_256" type="car" route="NS" depart="230" departSpeed="5"/>
    <vehicle id="EWBottom_257" type="car" route="EWBottom" depart="231" departSpeed="5"/>
    <vehicle id="t3_258" type="car" route="t3" depart="231" departSpeed="5"/>
    <vehicle id="t6_259" type="car" route="t6" depart="231" departSpeed="5"/>
    <vehicle id="WETop_260" type="car" route="WETop" depart="232" departSpeed="5"/>
    <vehicle id="EWTop_261" type="car" route="EWTop" depart="232" departSpeed="5"/>
    <vehicle id="NS_262" type="car" route="NS" depart="232" departSpeed="5"/>
    <vehicle id="t3_263" type="car" route="t3" depart="234" departSpeed="5"/>
    <vehicle id="WEBottom_264" type="car" route="WEBottom" depart="235" departSpeed="5"/>
    <vehicle id="t3_265" type="car" route="t3" depart="239" departSpeed="5"/>
    <vehicle id="t2_266" type="car" route="t2" depart="240" departSpeed="5"/>
    <vehicle id="EWBottom_267" type="car" route="EWBottom" depart="244" departSpeed="5"/>
    <vehicle id="t5_268" type="car" route="t5" depart="244" departSpeed="5"/>
    <vehicle id="EWTop_269" type="car" route="EWTop" depart="245" departSpeed="5"/>
    <vehicle id="t5_270" type="car" route="t5" depart="245" departSpeed="5"/>
    <vehicle id="NS_271" type="car" route="NS" depart="246" departSpeed="5"/>
    <vehicle id="t3_272" type="car" route="t3" depart="246" departSpeed="5"/>
    <vehicle id="t2_273" type="car" route="t2" depart="247" departSpeed="5"/>
    <vehicle id="EWBottom_274" type="car" route="EWBottom" depart="248" departSpeed="5"/>
    <vehicle id="t4_275" type="car" route="t4" depart="248" departSpeed="5"/>
    <vehicle id="t5_276" type="car" route="t5" depart="248" departSpeed="5"/>
    <vehicle id="WETop_277" type="car" route="WETop" depart="250" departSpeed="5"/>
    <vehicle id="t5_278" type="car" route="t5" depart="250" departSpeed="5"/>
    <vehicle id="EWTop_279" type="car" route="EWTop" depart="252" departSpeed="5"/>
    <vehicle id="WEBottom_280" type="car" route="WEBottom" depart="252" departSpeed="5"/>
    <vehicle id="t3_281" type="car" route="t3" depart="253" departSpeed="5"/>
    <vehicle id="t5_282" type="car" route="t5" depart="253" departSpeed="5"/>
    <vehicle id="t3_283" type="car" route="t3" depart="254" departSpeed="5"/>
    <vehicle id="t4_284" type="car" route="t4" depart="255" departSpeed="5"/>
    <vehicle id="t3_285" type="car" route="t3" depart="256" departSpeed="5"/>
    <vehicle id="NS_286" type="car" route="NS" depart="257" departSpeed="5"/>
    <vehicle id="SN_287" type="car" route="SN" depart="257" departSpeed="5"/>
    <vehicle id="t2_288" type="car" route="t2" depart="257" departSpeed="5"/>
    <vehicle id="SN_289" type="car" route="SN" depart="258" departSpeed="5"/>
    <vehicle id="t5_290" type="car" route="t5" depart="258" departSpeed="5"/>
    <vehicle id="t4_291" type="car" route="t4" depart="259" departSpeed="5"/>
    <vehicle id="t5_292" type="car" route="t5" depart="259" departSpeed="5"/>
    <vehicle id="EWTop_293" type="car" route="EWTop" depart="261" departSpeed="5"/>
    <vehicle id="t5_294" type="car" route="t5" depart="261" departSpeed="5"/>
    <vehicle id="WETop_295" type="car" route="WETop" depart="265" departSpeed="5"/>
    <vehicle id="t6_296" type="car" route="t6" depart="265" departSpeed="5"/>
    <vehicle id="EWTop_297" type="car" route="EWTop" depart="266" departSpeed="5"/>
    <vehicle id="EWBottom_298" type="car" route="EWBottom" depart="266" departSpeed="5"/>
    <vehicle id="t6_299" type="car" route="t6" depart="266" departSpeed="5"/>
    <vehicle id="SN_300" type="car" route="SN" depart="267" departSpeed="5"/>
    <vehicle id="t3_301" type="car" route="t3" depart="268" departSpeed="5"/>
    <vehicle id="WEBottom_302" type="car" route="WEBottom" depart="269" departSpeed="5"/>
    <vehicle id="t2_303" type="car" route="t2" depart="269" departSpeed="5"/>
    <vehicle id="WEBottom_304" type="car" route="WEBottom" depart="270" departSpeed="5"/>
    <vehicle id="SN_305" type="car" route="SN" depart="270" departSpeed="5"/>
    <vehicle id="WEBottom_306" type="car" route="WEBottom" depart="272" departSpeed="5"/>
    <vehicle id="EWBottom_307" type="car" route="EWBottom" depart="272" departSpeed="5"/>
    <vehicle id="EWTop_308" type="car" route="EWTop" depart="273" departSpeed="5"/>
    <vehicle id="t5_309" type="car" route="t5" depart="275" departSpeed="5"/>
    <vehicle id="SN_310" type="car" route="SN" depart="276" departSpeed="5"/>
    <vehicle id="t2_311" type="car" route="t2" depart="276" departSpeed="5"/>
    <vehicle id="WETop_312" type="car" route="WETop" depart="278" departSpeed="5"/>
    <vehicle id="WEBottom_313" type="car" route="WEBottom" depart="278" departSpeed="5"/>
    <vehicle id="t3_314" type="car" route="t3" depart="279" departSpeed="5"/>
    <vehicle id="t4_315" type="car" route="t4" depart="279" departSpeed="5"/>
    <vehicle id="EWTop_316" type="car" route="EWTop" depart="282" departSpeed="5"/>
    <vehicle id="t3_317" type="car" route="t3" depart="282" departSpeed="5"/>
    <vehicle id="WEBottom_318" type="car" route="WEBottom" depart="283" departSpeed="5"/>
    <vehicle id="t6_319" type="car" route="t6" depart="284" departSpeed="5"/>
    <vehicle id="WEBottom_320" type="car" route="WEBottom" depart="288" departSpeed="5"/>
    <vehicle id="EWBottom_321" type="car" route="EWBottom" depart="288" departSpeed="5"/>
    <vehicle id="WETop_322" type="car" route="WETop" depart="289" departSpeed="5"/>
    <vehicle id="t4_323" type="car" route="t4" depart="289" departSpeed="5"/>
    <vehicle id="t6_324" type="car" route="t6" depart="289" departSpeed="5"/>
    <vehicle id="t2_325" type="car" route="t2" depart="290" departSpeed="5"/>
    <vehicle id="t4_326" type="car" route="t4" depart="291" departSpeed="5"/>
    <vehicle id="WEBottom_327" type="car" route="WEBottom" depart="293" departSpeed="5"/>
    <vehicle id="t4_328" type="car" route="t4" depart="293" departSpeed="5"/>
    <vehicle id="EWBottom_329" type="car" route="EWBottom" depart="295" departSpeed="5"/>
    <vehicle id="t4_330" type="car" route="t4" depart="296" departSpeed="5"/>
    <vehicle id="t6_331" type="car" route="t6" depart="297" departSpeed="5"/>
    <vehicle id="WETop_332" type="car" route="WETop" depart="300" departSpeed="5"/>
    <vehicle id="SN_333" type="car" route="SN" depart="300" departSpeed="5"/>
    <vehicle id="EWTop_334" type="car" route="EWTop" depart="303" departSpeed="5"/>
    <vehicle id="t2_335" type="car" route="t2" depart="303" departSpeed="5"/>
    <vehicle id="t6_336" type="car" route="t6" depart="304" departSpeed="5"/>
    <vehicle id="NS_337" type="car" route="NS" depart="305" departSpeed="5"/>
    <vehicle id="t3_338" type="car" route="t3" depart="305" departSpeed="5"/>
    <vehicle id="NS_339" type="car" route="NS" depart="306" departSpeed="5"/>
    <vehicle id="t5_340" type="car" route="t5" depart="308" departSpeed="5"/>
    <vehicle id="t6_341" type="car" route="t6" depart="308" departSpeed="5"/>
    <vehicle id="WETop_342" type="car" route="WETop" depart="310" departSpeed="5"/>
    <vehicle id="EWBottom_343" type="car" route="EWBottom" depart="310" departSpeed="5"/>
    <vehicle id="t6_344" type="car" route="t6" depart="310" departSpeed="5"/>
    <vehicle id="t4_345" type="car" route="t4" depart="311" departSpeed="5"/>
    <vehicle id="t5_346" type="car" route="t5" depart="311" departSpeed="5"/>
    <vehicle id="SN_347" type="car" route="SN" depart="313" departSpeed="5"/>
    <vehicle id="t4_348" type="car" route="t4" depart="313" departSpeed="5"/>
    <vehicle id="SN_349" type="car" route="SN" depart="315" departSpeed="5"/>
    <vehicle id="t3_350" type="car" route="t3" depart="315" departSpeed="5"/>
    <vehicle id="t3_351" type="car" route="t3" depart="316" departSpeed="5"/>
    <vehicle id="EWBottom_352" type="car" route="EWBottom" depart="317" departSpeed="5"/>
    <vehicle id="t3_353" type="car" route="t3" depart="317" departSpeed="5"/>
    <vehicle id="WEBottom_354" type="car" route="WEBottom" depart="318" departSpeed="5"/>
    <vehicle id="t4_355" type="car" route="t4" depart="319" departSpeed="5"/>
    <vehicle id="t3_356" type="car" route="t3" depart="320" departSpeed="5"/>
    <vehicle id="EWBottom_357" type="car" route="EWBottom" depart="321" departSpeed="5"/>
    <vehicle id="t4_358" type="car" route="t4" depart="322" departSpeed="5"/>
    <vehicle id="NS_359" type="car" route="NS" depart="323" departSpeed="5"/>