<routes>
                               <vType id="car" accel="1.0" decel="4.5" sigma="0.7" length="5" minGap="3" maxSpeed="15" guiShape="passenger"/>

                               <route id="WETop" edges="5i 1i 2o" />
                               <route id="EWTop" edges="2i 1o 5o" />
                               <route id="NS" edges="4i 3o 8i" />
                               <route id="SN" edges="8o 3i 4o" />
                               <route id="WEBottom" edges="9o 7o 11o" />
                               <route id="EWBottom" edges="11i 7i 9i" />

                               <route id="t1" edges="6o 1i 3o 11o" />
                               <route id="t2" edges="8o 7i 10i" />
                               <route id="t3" edges="4i 1o 6i" />
                               <route id="t4" edges="10o 7o 11o" />

                               <route id="t5" edges="9o 7o 8i" />
                               <route id="t6" edges="9o 10i" />
                               <route id="t7" edges="6o 5o" />
                               <route id="t8" edges="4i 3o 11o" />
                               <route id="t9" edges="9o 7o 3i 1o 6i" />
                               
    <vehicle id="WETop_0" type="car" route="WETop" depart="0" departSpeed="5"/>
    <vehicle id="SN_1" type="car" route="SN" depart="0" departSpeed="5"/>
    <vehicle id="t6_2" type="car" route="t6" depart="1" departSpeed="5"/>
    <vehicle id="t9_3" type="car" route="t9" depart="1" departSpeed="5"/>
    <vehicle id="EWBottom_4" type="car" route="EWBottom" depart="2" departSpeed="5"/>
    <vehicle id="t6_5" type="car" route="t6" depart="2" departSpeed="5"/>
    <vehicle id="t9_6" type="car" route="t9" depart="2" departSpeed="5"/>
    <vehicle id="EWTop_7" type="car" route="EWTop" depart="3" departSpeed="5"/>
    <vehicle id="t1_8" type="car" route="t1" depart="3" departSpeed="5"/>
    <vehicle id="t6_9" type="car" route="t6" depart="3" departSpeed="5"/>
    <vehicle id="NS_10" type="car" route="NS" depart="4" departSpeed="5"/>
    <vehicle id="t6_11" type="car" route="t6" depart="4" departSpeed="5"/>
    <vehicle id="t7_12" type="car" route="t7" depart="4" departSpeed="5"/>
    <vehicle id="SN_13" type="car" route="SN" depart="5" departSpeed="5"/>
    <vehicle id="t1_14" type="car" route="t1" depart="5" departSpeed="5"/>
    <vehicle id="t6_15" type="car" route="t6" depart="8" departSpeed="5"/>
    <vehicle id="WEBottom_16" type="car" route="WEBottom" depart="9" departSpeed="5"/>
    <vehicle id="t6_17" type="car" route="t6" depart="9" departSpeed="5"/>
    <vehicle id="t8_18" type="car" route="t8" depart="9" departSpeed="5"/>
    <vehicle id="EWTop_19" type="car" route="EWTop" depart="10" departSpeed="5"/>
    <vehicle id="t6_20" type="car" route="t6" depart="10" departSpeed="5"/>
    <vehicle id="WETop_21" type="car" route="WETop" depart="11" departSpeed="5"/>
    <vehicle id="WEBottom_22" type="car" route="WEBottom" depart="11" departSpeed="5"/>
    <vehicle id="t6_23" type="car" route="t6" depart="12" departSpeed="5"/>
    <vehicle id="t7_24" type="car" route="t7" depart="12" departSpeed="5"/>
    <vehicle id="NS_25" type="car" route="NS" depart="13" departSpeed="5"/>
    <vehicle id="SN_26" type="car" route="SN" depart="13" departSpeed="5"/>
    <vehicle id="t9_27" type="car" route="t9" depart="14" departSpeed="5"/>
    <vehicle id="NS_28" type="car" route="NS" depart="16" departSpeed="5"/>
    <vehicle id="t7_29" type="car" route="t7" depart="16" departSpeed="5"/>
    <vehicle id="EWTop_30" type="car" route="EWTop" depart="18" departSpeed="5"/>
    <vehicle id="t2_31" type="car" route="t2" depart="20" departSpeed="5"/>
    <vehicle id="t3_32" type="car" route="t3" depart="20" departSpeed="5"/>
    <vehicle id="t6_33" type="car" route="t6" depart="21" departSpeed="5"/>
    <vehicle id="WEBottom_34" type="car" route="WEBottom" depart="22" departSpeed="5"/>
    <vehicle id="t7_35" type="car" route="t7" depart="22" departSpeed="5"/>
    <vehicle id="t8_36" type="car" route="t8" depart="22" departSpeed="5"/>
    <vehicle id="EWBottom_37" type="car" route="EWBottom" depart="23" departSpeed="5"/>
    <vehicle id="SN_38" type="car" route="SN" depart="23" departSpeed="5"/>
    <vehicle id="t8_39" type="car" route="t8" depart="23" departSpeed="5"/>
    <vehicle id="WETop_40" type="car" route="WETop" depart="24" departSpeed="5"/>
    <vehicle id="t4_41" type="car" route="t4" depart="24" departSpeed="5"/>
    <vehicle id="t5_42" type="car" route="t5" depart="24" departSpeed="5"/>
    <vehicle id="EWTop_43" type="car" route="EWTop" depart="25" departSpeed="5"/>
    <vehicle id="NS_44" type="car" route="NS" depart="25" departSpeed="5"/>
    <vehicle id="t3_45" type="car" route="t3" depart="25" departSpeed="5"/>
    <vehicle id="WETop_46" type="car" route="WETop" depart="26" departSpeed="5"/>
    <vehicle id="t3_47" type="car" route="t3" depart="27" departSpeed="5"/>
    <vehicle id="t6_48" type="car" route="t6" depart="27" departSpeed="5"/>
    <vehicle id="t9_49" type="car" route="t9" depart="27" departSpeed="5"/>
    <vehicle id="EWBottom_50" type="car" route="EWBottom" depart="28" departSpeed="5"/>
    <vehicle id="SN_51" type="car" route="SN" depart="29" departSpeed="5"/>
    <vehicle id="t6_52" type="car" route="t6" depart="29" departSpeed="5"/>
    <vehicle id="t7_53" type="car" route="t7" depart="29" departSpeed="5"/>
    <vehicle id="EWTop_54" type="car" route="EWTop" depart="30" departSpeed="5"/>
    <vehicle id="t3_55" type="car" route="t3" depart="30" departSpeed="5"/>
    <vehicle id="t2_56" type="car" route="t2" depart="31" departSpeed="5"/>
    <vehicle id="t3_57" type="car" route="t3" depart="31" departSpeed="5"/>
    <vehicle id="NS_58" type="car" route="NS" depart="32" departSpeed="5"/>
    <vehicle id="t6_59" type="car" route="t6" depart="32" departSpeed="5"/>
    <vehicle id="WETop_60" type="car" route="WETop" depart="33" departSpeed="5"/>
    <vehicle id="WETop_61" type="car" route="WETop" depart="34" departSpeed="5"/>
    <vehicle id="WETop_62" type="car" route="WETop" depart="35" departSpeed="5"/>
    <vehicle id="EWTop_63" type="car" route="EWTop" depart="35" departSpeed="5"/>
    <vehicle id="WEBottom_64" type="car" route="WEBottom" depart="36" departSpeed="5"/>
    <vehicle id="NS_65" type="car" route="NS" depart="39" departSpeed="5"/>
    <vehicle id="t8_66" type="car" route="t8" depart="39" departSpeed="5"/>
    <vehicle id="t1_67" type="car" route="t1" depart="40" departSpeed="5"/>
    <vehicle id="t2_68" type="car" route="t2" depart="40" departSpeed="5"/>
    <vehicle id="t1_69" type="car" route="t1" depart="41" departSpeed="5"/>
    <vehicle id="WEBottom_70" type="car" route="WEBottom" depart="42" departSpeed="5"/>
    <vehicle id="t6_71" type="car" route="t6" depart="42" departSpeed="5"/>
    <vehicle id="SN_72" type="car" route="SN" depart="43" departSpeed="5"/>
    <vehicle id="t4_73" type="car" route="t4" depart="43" departSpeed="5"/>
    <vehicle id="t5_74" type="car" route="t5" depart="43" departSpeed="5"/>
    <vehicle id="t9_75" type="car" route="t9" depart="43" departSpeed="5"/>
    <vehicle id="EWBottom_76" type="car" route="EWBottom" depart="44" departSpeed="5"/>
    <vehicle id="NS_77" type="car" route="NS" depart="44" departSpeed="5"/>
    <vehicle id="t7_78" type="car" route="t7" depart="44" departSpeed="5"/>
    <vehicle id="t6_79" type="car" route="t6" depart="45" departSpeed="5"/>
    <vehicle id="t9_80" type="car" route="t9" depart="46" departSpeed="5"/>
    <vehicle id="SN_81" type="car" route="SN" depart="47" departSpeed="5"/>
    <vehicle id="t9_82" type="car" route="t9" depart="47" departSpeed="5"/>
    <vehicle id="WEBottom_83" type="car" route="WEBottom" depart="48" departSpeed="5"/>
    <vehicle id="t6_84" type="car" route="t6" depart="48" departSpeed="5"/>
    <vehicle id="NS_85" type="car" route="NS" depart="49" departSpeed="5"/>
    <vehicle id="t4_86" type="car" route="t4" depart="49" departSpeed="5"/>
    <vehicle id="t5_87" type="car" route="t5" depart="49" departSpeed="5"/>
    <vehicle id="t9_88" type="car" route="t9" depart="49" departSpeed="5"/>
    <vehicle id="t8_89" type="car" route="t8" depart="50" departSpeed="5"/>
    <vehicle id="t9_90" type="car" route="t9" depart="50" departSpeed="5"/>
    <vehicle id="t3_91" type="car" route="t3" depart="51" departSpeed="5"/>
    <vehicle id="WETop_92" type="car" route="WETop" depart="52" departSpeed="5"/>
    <vehicle id="EWBottom_93" type="car" route="EWBottom" depart="52" departSpeed="5"/>
    <vehicle id="t3_94" type="car" route="t3" depart="52" departSpeed="5"/>
    <vehicle id="t3_95" type="car" route="t3" depart="53" departSpeed="5"/>
    <vehicle id="t3_96" type="car" route="t3" depart="54" departSpeed="5"/>
    <vehicle id="t4_97" type="car" route="t4" depart="54" departSpeed="5"/>
    <vehicle id="t5_98" type="car" route="t5" depart="54" departSpeed="5"/>
    <vehicle id="WEBottom_99" type="car" route="WEBottom" depart="55" departSpeed="5"/>
    <vehicle id="EWBottom_100" type="car" route="EWBottom" depart="55" departSpeed="5"/>
    <vehicle id="t1_101" type="car" route="t1" depart="55" departSpeed="5"/>
    <vehicle id="t1_102" type="car" route="t1" depart="57" departSpeed="5"/>
    <vehicle id="t2_103" type="car" route="t2" depart="57" departSpeed="5"/>
    <vehicle id="t8_104" type="car" route="t8" depart="57" departSpeed="5"/>
    <vehicle id="t1_105" type="car" route="t1" depart="58" departSpeed="5"/>
    <vehicle id="t1_106" type="car" route="t1" depart="59" departSpeed="5"/>
    <vehicle id="t6_107" type="car" route="t6" depart="60" departSpeed="5"/>
    <vehicle id="t3_108" type="car" route="t3" depart="61" departSpeed="5"/>
    <vehicle id="t6_109" type="car" route="t6" depart="61" departSpeed="5"/>
    <vehicle id="t9_110" type="car" route="t9" depart="62" departSpeed="5"/>
    <vehicle id="t3_111" type="car" route="t3" depart="63" departSpeed="5"/>
    <vehicle id="EWBottom_112" type="car" route="EWBottom" depart="64" departSpeed="5"/>
    <vehicle id="t3_113" type="car" route="t3" depart="64" departSpeed="5"/>
    <vehicle id="WEBottom_114" type="car" route="WEBottom" depart="65" departSpeed="5"/>
    <vehicle id="t6_115" type="car" route="t6" depart="65" departSpeed="5"/>
    <vehicle id="EWTop_116" type="car" route="EWTop" depart="66" departSpeed="5"/>
    <vehicle id="WEBottom_117" type="car" route="WEBottom" depart="66" departSpeed="5"/>
    <vehicle id="t3_118" type="car" route="t3" depart="66" departSpeed="5"/>
    <vehicle id="t4_119" type="car" route="t4" depart="66" departSpeed="5"/>
    <vehicle id="t5_120" type="car" route="t5" depart="66" departSpeed="5"/>
    <vehicle id="WETop_121" type="car" route="WETop" depart="67" departSpeed="5"/>
    <vehicle id="EWTop_122" type="car" route="EWTop" depart="67" departSpeed="5"/>
    <vehicle id="t6_123" type="car" route="t6" depart="67" departSpeed="5"/>
    <vehicle id="t8_124" type="car" route="t8" depart="67" departSpeed="5"/>
    <vehicle id="WETop_125" type="car" route="WETop" depart="68" departSpeed="5"/>
    <vehicle id="t6_126" type="car" route="t6" depart="68" departSpeed="5"/>
    <vehicle id="SN_127" type="car" route="SN" depart="70" departSpeed="5"/>
    <vehicle id="t6_128" type="car" route="t6" depart="70" departSpeed="5"/>
    <vehicle id="SN_129" type="car" route="SN" depart="71" departSpeed="5"/>
    <vehicle id="t1_130" type="car" route="t1" depart="71" departSpeed="5"/>
    <vehicle id="t6_131" type="car" route="t6" depart="71" departSpeed="5"/>
    <vehicle id="t7_132" type="car" route="t7" depart="71" departSpeed="5"/>
    <vehicle id="t1_133" type="car" route="t1" depart="72" departSpeed="5"/>
    <vehicle id="EWTop_134" type="car" route="EWTop" depart="73" departSpeed="5"/>
    <vehicle id="t6_135" type="car" route="t6" depart="73" departSpeed="5"/>
    <vehicle id="t8_136" type="car" route="t8" depart="73" departSpeed="5"/>
    <vehicle id="t9_137" type="car" route="t9" depart="73" departSpeed="5"/>
    <vehicle id="SN_138" type="car" route="SN" depart="74" departSpeed="5"/>
    <vehicle id="t8_139" type="car" route="t8" depart="75" departSpeed="5"/>
    <vehicle id="t6_140" type="car" route="t6" depart="77" departSpeed="5"/>
    <vehicle id="t6_141" type="car" route="t6" depart="78" departSpeed="5"/>
    <vehicle id="t8_142" type="car" route="t8" depart="78" departSpeed="5"/>
    <vehicle id="SN_143" type="car" route="SN" depart="79" departSpeed="5"/>
    <vehicle id="t1_144" type="car" route="t1" depart="80" departSpeed="5"/>
    <vehicle id="t3_145" type="car" route="t3" depart="80" departSpeed="5"/>
    <vehicle id="WETop_146" type="car" route="WETop" depart="83" departSpeed="5"/>
    <vehicle id="t2_147" type="car" route="t2" depart="83" departSpeed="5"/>
    <vehicle id="t4_148" type="car" route="t4" depart="83" departSpeed="5"/>
    <vehicle id="t5_149" type="car" route="t5" depart="83" departSpeed="5"/>
    <vehicle id="t6_150" type="car" route="t6" depart="84" departSpeed="5"/>
    <vehicle id="WEBottom_151" type="car" route="WEBottom" depart="86" departSpeed="5"/>
    <vehicle id="t8_152" type="car" route="t8" depart="86" departSpeed="5"/>
    <vehicle id="WETop_153" type="car" route="WETop" depart="87" departSpeed="5"/>
    <vehicle id="t2_154" type="car" route="t2" depart="87" departSpeed="5"/>
    <vehicle id="t4_155" type="car" route="t4" depart="87" departSpeed="5"/>
    <vehicle id="t5_156" type="car" route="t5" depart="87" departSpeed="5"/>
    <vehicle id="t6_157" type="car" route="t6" depart="87" departSpeed="5"/>
    <vehicle id="t7_158" type="car" route="t7" depart="87" departSpeed="5"/>
    <vehicle id="t8_159" type="car" route="t8" depart="87" departSpeed="5"/>
    <vehicle id="WETop_160" type="car" route="WETop" depart="88" departSpeed="5"/>
    <vehicle id="NS_161" type="car" route="NS" depart="88" departSpeed="5"/>
    <vehicle id="SN_162" type="car" route="SN" depart="88" departSpeed="5"/>
    <vehicle id="t3_163" type="car" route="t3" depart="88" departSpeed="5"/>
    <vehicle id="t9_164" type="car" route="t9" depart="88" departSpeed="5"/>
    <vehicle id="t2_165" type="car" route="t2" depart="89" departSpeed="5"/>
    <vehicle id="WEBottom_166" type="car" route="WEBottom" depart="92" departSpeed="5"/>
    <vehicle id="SN_167" type="car" route="SN" depart="92" departSpeed="5"/>
    <vehicle id="t8_168" type="car" route="t8" depart="92" departSpeed="5"/>
    <vehicle id="t1_169" type="car" route="t1" depart="93" departSpeed="5"/>
    <vehicle id="t3_170" type="car" route="t3" depart="93" departSpeed="5"/>
    <vehicle id="WETop_171" type="car" route="WETop" depart="94" departSpeed="5"/>
    <vehicle id="EWBottom_172" type="car" route="EWBottom" depart="94" departSpeed="5"/>
    <vehicle id="t2_173" type="car" route="t2" depart="94" departSpeed="5"/>
    <vehicle id="t6_174" type="car" route="t6" depart="95" departSpeed="5"/>
    <vehicle id="t7_175" type="car" route="t7" depart="95" departSpeed="5"/>
    <vehicle id="t8_176" type="car" route="t8" depart="96" departSpeed="5"/>
    <vehicle id="WETop_177" type="car" route="WETop" depart="97" departSpeed="5"/>
    <vehicle id="EWTop_178" type="car" route="EWTop" depart="97" departSpeed="5"/>
    <vehicle id="WETop_179" type="car" route="WETop" depart="99" departSpeed="5"/>
    <vehicle id="EWTop_180" type="car" route="EWTop" depart="99" departSpeed="5"/>
    <vehicle id="t6_181" type="car" route="t6" depart="99" departSpeed="5"/>
    <vehicle id="t9_182" type="car" route="t9" depart="99" departSpeed="5"/>
    <vehicle id="t6_183" type="car" route="t6" depart="100" departSpeed="5"/>
    <vehicle id="WETop_184" type="car" route="WETop" depart="104" departSpeed="5"/>
    <vehicle id="t3_185" type="car" route="t3" depart="104" departSpeed="5"/>
    <vehicle id="t6_186" type="car" route="t6" depart="104" departSpeed="5"/>
    <vehicle id="t1_187" type="car" route="t1" depart="105" departSpeed="5"/>
    <vehicle id="EWTop_188" type="car" route="EWTop" depart="106" departSpeed="5"/>
    <vehicle id="SN_189" type="car" route="SN" depart="106" departSpeed="5"/>
    <vehicle id="t2_190" type="car" route="t2" depart="107" departSpeed="5"/>
    <vehicle id="t6_191" type="car" route="t6" depart="107" departSpeed="5"/>
    <vehicle id="t1_192" type="car" route="t1" depart="108" departSpeed="5"/>
    <vehicle id="t9_193" type="car" route="t9" depart="109" departSpeed="5"/>
    <vehicle id="WEBottom_194" type="car" route="WEBottom" depart="112" departSpeed="5"/>
    <vehicle id="NS_195" type="car" route="NS" depart="112" departSpeed="5"/>
    <vehicle id="SN_196" type="car" route="SN" depart="112" departSpeed="5"/>
    <vehicle id="t6_197" type="car" route="t6" depart="112" departSpeed="5"/>
    <vehicle id="t2_198" type="car" route="t2" depart="113" departSpeed="5"/>
    <vehicle id="t7_199" type="car" route="t7" depart="115" departSpeed="5"/>
    <vehicle id="t2_200" type="car" route="t2" depart="116" departSpeed="5"/>
    <vehicle id="t8_201" type="car" route="t8" depart="116" departSpeed="5"/>
    <vehicle id="EWTop_202" type="car" route="EWTop" depart="117" departSpeed="5"/>
    <vehicle id="t6_203" type="car" route="t6" depart="117" departSpeed="5"/>
    <vehicle id="EWTop_204" type="car" route="EWTop" depart="119" departSpeed="5"/>
    <vehicle id="SN_205" type="car" route="SN" depart="119" departSpeed="5"/>
    <vehicle id="t1_206" type="car" route="t1" depart="121" departSpeed="5"/>
    <vehicle id="t4_207" type="car" route="t4" depart="121" departSpeed="5"/>
    <vehicle id="t5_208" type="car" route="t5" depart="121" departSpeed="5"/>
    <vehicle id="EWBottom_209" type="car" route="EWBottom" depart="122" departSpeed="5"/>
    <vehicle id="t3_210" type="car" route="t3" depart="122" departSpeed="5"/>
    <vehicle id="t6_211" type="car" route="t6" depart="122" departSpeed="5"/>
    <vehicle id="t6_212" type="car" route="t6" depart="122" departSpeed="5"/>
    <vehicle id="EWTop_213" type="car" route="EWTop" depart="123" departSpeed="5"/>
    <vehicle id="t1_214" type="car" route="t1" depart="123" departSpeed="5"/>
    <vehicle id="t7_215" type="car" route="t7" depart="123" departSpeed="5"/>
    <vehicle id="t6_216" type="car" route="t6" depart="125" departSpeed="5"/>
    <vehicle id="t7_217" type="car" route="t7" depart="125" departSpeed="5"/>
    <vehicle id="t9_218" type="car" route="t9" depart="125" departSpeed="5"/>
    <vehicle id="t3_219" type="car" route="t3" depart="126" departSpeed="5"/>
    <vehicle id="SN_220" type="car" route="SN" depart="127" departSpeed="5"/>
    <vehicle id="WEBottom_221" type="car" route="WEBottom" depart="128" departSpeed="5"/>
    <vehicle id="EWBottom_222" type="car" route="EWBottom" depart="128" departSpeed="5"/>
    <vehicle id="NS_223" type="car" route="NS" depart="128" departSpeed="5"/>
    <vehicle id="t6_224" type="car" route="t6" depart="128" departSpeed="5"/>
    <vehicle id="t9_225" type="car" route="t9" depart="128" departSpeed="5"/>
    <vehicle id="t6_226" type="car" route="t6" depart="130" departSpeed="5"/>
    <vehicle id="t6_227" type="car" route="t6" depart="131" departSpeed="5"/>
    <vehicle id="t8_228" type="car" route="t8" depart="131" departSpeed="5"/>
    <vehicle id="t4_229" type="car" route="t4" depart="132" departSpeed="5"/>
    <vehicle id="t5_230" type="car" route="t5" depart="132" departSpeed="5"/>
    <vehicle id="t6_231" type="car" route="t6" depart="132" departSpeed="5"/>
    <vehicle id="EWTop_232" type="car" route="EWTop" depart="133" departSpeed="5"/>
    <vehicle id="WEBottom_233" type="car" route="WEBottom" depart="133" departSpeed="5"/>
    <vehicle id="SN_234" type="car" route="SN" depart="133" departSpeed="5"/>
    <vehicle id="t1_235" type="car" route="t1" depart="133" departSpeed="5"/>
    <vehicle id="t6_236" type="car" route="t6" depart="134" departSpeed="5"/>
    <vehicle id="t9_237" type="car" route="t9" depart="136" departSpeed="5"/>
    <vehicle id="WEBottom_238" type="car" route="WEBottom" depart="137" departSpeed="5"/>
    <vehicle id="t1_239" type="car" route="t1" depart="137" departSpeed="5"/>
    <vehicle id="t4_240" type="car" route="t4" depart="137" departSpeed="5"/>
    <vehicle id="t5_241" type="car" route="t5" depart="137" departSpeed="5"/>
    <vehicle id="t6_242" type="car" route="t6" depart="137" departSpeed="5"/>
    <vehicle id="WETop_243" type="car" route="WETop" depart="138" departSpeed="5"/>
    <vehicle id="t7_244" type="car" route="t7" depart="138" departSpeed="5"/>
    <vehicle id="t4_245" type="car" route="t4" depart="139" departSpeed="5"/>
    <vehicle id="t5_246" type="car" route="t5" depart="139" departSpeed="5"/>
    <vehicle id="EWBottom_247" type="car" route="EWBottom" depart="140" departSpeed="5"/>
    <vehicle id="t7_248" type="car" route="t7" depart="140" departSpeed="5"/>
    <vehicle id="t2_249" type="car" route="t2" depart="141" departSpeed="5"/>
    <vehicle id="EWTop_250" type="car" route="EWTop" depart="142" departSpeed="5"/>
    <vehicle id="t9_251" type="car" route="t9" depart="144" departSpeed="5"/>
    <vehicle id="t4_252" type="car" route="t4" depart="145" departSpeed="5"/>
    <vehicle id="t5_253" type="car" route="t5" depart="145" departSpeed="5"/>
    <vehicle id="t6_254" type="car" route="t6" depart="145" departSpeed="5"/>
    <vehicle id="WETop_255" type="car" route="WETop" depart="146" departSpeed="5"/>
    <vehicle id="EWTop_256" type="car" route="EWTop" depart="148" departSpeed="5"/>
    <vehicle id="NS_257" type="car" route="NS" depart="148" departSpeed="5"/>
    <vehicle id="t8_258" type="car" route="t8" depart="148" departSpeed="5"/>
    <vehicle id="t8_259" type="car" route="t8" depart="149" departSpeed="5"/>
    <vehicle id="SN_260" type="car" route="SN" depart="150" departSpeed="5"/>
    <vehicle id="t3_261" type="car" route="t3" depart="150" departSpeed="5"/>
    <vehicle id="WEBottom_262" type="car" route="WEBottom" depart="151" departSpeed="5"/>
    <vehicle id="t1_263" type="car" route="t1" depart="151" departSpeed="5"/>
    <vehicle id="EWBottom_264" type="car" route="EWBottom" depart="152" departSpeed="5"/>
    <vehicle id="t3_265" type="car" route="t3" depart="152" departSpeed="5"/>
    <vehicle id="t6_266" type="car" route="t6" depart="152" departSpeed="5"/>
    <vehicle id="t9_267" type="car" route="t9" depart="152" departSpeed="5"/>
    <vehicle id="EWTop_268" type="car" route="EWTop" depart="153" departSpeed="5"/>
    <vehicle id="t2_269" type="car" route="t2" depart="153" departSpeed="5"/>
    <vehicle id="t4_270" type="car" route="t4" depart="153" departSpeed="5"/>
    <vehicle id="t5_271" type="car" route="t5" depart="153" departSpeed="5"/>
    <vehicle id="WEBottom_272" type="car" route="WEBottom" depart="154" departSpeed="5"/>
    <vehicle id="t4_273" type="car" route="t4" depart="154" departSpeed="5"/>
    <vehicle id="t5_274" type="car" route="t5" depart="154" departSpeed="5"/>
    <vehicle id="WETop_275" type="car" route="WETop" depart="155" departSpeed="5"/>
    <vehicle id="t1_276" type="car" route="t1" depart="155" departSpeed="5"/>
    <vehicle id="EWTop_277" type="car" route="EWTop" depart="156" departSpeed="5"/>
    <vehicle id="EWBottom_278" type="car" route="EWBottom" depart="156" departSpeed="5"/>
    <vehicle id="t6_279" type="car" route="t6" depart="156" departSpeed="5"/>
    <vehicle id="SN_280" type="car" route="SN" depart="157" departSpeed="5"/>
    <vehicle id="WEBottom_281" type="car" route="WEBottom" depart="158" departSpeed="5"/>
    <vehicle id="NS_282" type="car" route="NS" depart="158" departSpeed="5"/>
    <vehicle id="t1_283" type="car" route="t1" depart="158" departSpeed="5"/>
    <vehicle id="t1_284" type="car" route="t1" depart="159" departSpeed="5"/>
    <vehicle id="t8_285" type="car" route="t8" depart="160" departSpeed="5"/>
    <vehicle id="EWTop_286" type="car" route="EWTop" depart="161" departSpeed="5"/>
    <vehicle id="NS_287" type="car" route="NS" depart="162" departSpeed="5"/>
    <vehicle id="t3_288" type="car" route="t3" depart="162" departSpeed="5"/>
    <vehicle id="t7_289" type="car" route="t7" depart="162" departSpeed="5"/>
    <vehicle id="t4_290" type="car" route="t4" depart="163" departSpeed="5"/>
    <vehicle id="t5_291" type="car" route="t5" depart="163" departSpeed="5"/>
    <vehicle id="t9_292" type="car" route="t9" depart="164" departSpeed="5"/>
    <vehicle id="WEBottom_293" type="car" route="WEBottom" depart="165" departSpeed="5"/>
    <vehicle id="t7_294" type="car" route="t7" depart="166" departSpeed="5"/>
    <vehicle id="t8_295" type="car" route="t8" depart="166" departSpeed="5"/>
    <vehicle id="NS_296" type="car" route="NS" depart="167" departSpeed="5"/>
    <vehicle id="t3_297" type="car" route="t3" depart="167" departSpeed="5"/>
    <vehicle id="t2_298" type="car" route="t2" depart="169" departSpeed="5"/>
    <vehicle id="t3_299" type="car" route="t3" depart="169" departSpeed="5"/>
    <vehicle id="t6_300" type="car" route="t6" depart="169" departSpeed="5"/>
    <vehicle id="NS_301" type="car" route="NS" depart="171" departSpeed="5"/>
    <vehicle id="t6_302" type="car" route="t6" depart="172" departSpeed="5"/>
    <vehicle id="EWTop_303" type="car" route="EWTop" depart="173" departSpeed="5"/>
    <vehicle id="NS_304" type="car" route="NS" depart="174" departSpeed="5"/>
    <vehicle id="t7_305" type="car" route="t7" depart="175" departSpeed="5"/>
    <vehicle id="EWBottom_306" type="car" route="EWBottom" depart="176" departSpeed="5"/>
    <vehicle id="t6_307" type="car" route="t6" depart="177" departSpeed="5"/>
    <vehicle id="NS_308" type="car" route="NS" depart="178" departSpeed="5"/>
    <vehicle id="t9_309" type="car" route="t9" depart="178" departSpeed="5"/>
    <vehicle id="t4_310" type="car" route="t4" depart="179" departSpeed="5"/>
    <vehicle id="t5_311" type="car" route="t5" depart="179" departSpeed="5"/>
    <vehicle id="NS_312" type="car" route="NS" depart="180" departSpeed="5"/>
    <vehicle id="t4_313" type="car" route="t4" depart="180" departSpeed="5"/>
    <vehicle id="t5_314" type="car" route="t5" depart="180" departSpeed="5"/>
    <vehicle id="WEBottom_315" type="car" route="WEBottom" depart="181" departSpeed="5"/>
    <vehicle id="t6_316" type="car" route="t6" depart="181" departSpeed="5"/>
    <vehicle id="t1_317" type="car" route="t1" depart="183" departSpeed="5"/>
    <vehicle id="WETop_318" type="car" route="WETop" depart="184" departSpeed="5"/>
    <vehicle id="t4_319" type="car" route="t4" depart="185" departSpeed="5"/>
    <vehicle id="t5_320" type="car" route="t5" depart="185" departSpeed="5"/>
    <vehicle id="t7_321" type="car" route="t7" depart="185" departSpeed="5"/>
    <vehicle id="EWBottom_322" type="car" route="EWBottom" depart="187" departSpeed="5"/>
    <vehicle id="EWBottom_323" type="car" route="EWBottom" depart="190" departSpeed="5"/>
    <vehicle id="t3_324" type="car" route="t3" depart="190" departSpeed="5"/>
    <vehicle id="t2_325" type="car" route="t2" depart="193" departSpeed="5"/>
    <vehicle id="EWTop_326" type="car" route="EWTop" depart="194" departSpeed="5"/>
    <vehicle id="t6_327" type="car" route="t6" depart="194" departSpeed="5"/>
    <vehicle id="t9_328" type="car" route="t9" depart="194" departSpeed="5"/>
    <vehicle id="EWBottom_329" type="car" route="EWBottom" depart="195" departSpeed="5"/>
    <vehicle id="NS_330" type="car" route="NS" depart="195" departSpeed="5"/>
    <vehicle id="EWTop_331" type="car" route="EWTop" depart="196" departSpeed="5"/>
    <vehicle id="EWBottom_332" type="car" route="EWBottom" depart="196" departSpeed="5"/>
    <vehicle id="t6_333" type="car" route="t6" depart="196" departSpeed="5"/>
    <vehicle id="t7_334" type="car" route="t7" depart="196" departSpeed="5"/>
    <vehicle id="t1_335" type="car" route="t1" depart="197" departSpeed="5"/>
    <vehicle id="t6_336" type="car" route="t6" depart="197" departSpeed="5"/>
    <vehicle id="SN_337" type="car" route="SN" depart="198" departSpeed="5"/>
    <vehicle id="t6_338" type="car" route="t6" depart="198" departSpeed="5"/>
    <vehicle id="WETop_339" type="car" route="WETop" depart="199" departSpeed="5"/>
    <vehicle id="NS_340" type="car" route="NS" depart="199" departSpeed="5"/>
    <vehicle id="t1_341" type="car" route="t1" depart="199" departSpeed="5"/>
    <vehicle id="t9_342" type="car" route="t9" depart="199" departSpeed="5"/>
    <vehicle id="WETop_343" type="car" route="WETop" depart="201" departSpeed="5"/>
    <vehicle id="t3_344" type="car" route="t3" depart="201" departSpeed="5"/>
    <vehicle id="EWTop_345" type="car" route="EWTop" depart="202" departSpeed="5"/>
    <vehicle id="t3_346" type="car" route="t3" depart="202" departSpeed="5"/>
    <vehicle id="EWTop_347" type="car" route="EWTop" depart="203" departSpeed="5"/>
    <vehicle id="t6_348" type="car" route="t6" depart="203" departSpeed="5"/>
    <vehicle id="WEBottom_349" type="car" route="WEBottom" depart="204" departSpeed="5"/>
    <vehicle id="t3_350" type="car" route="t3" depart="204" departSpeed="5"/>
    <vehicle id="t6_351" type="car" route="t6" depart="204" departSpeed="5"/>
    <vehicle id="SN_352" type="car" route="SN" depart="205" departSpeed="5"/>
    <vehicle id="t1_353" type="car" route="t1" depart="205" departSpeed="5"/>
    <vehicle id="t4_354" type="car" route="t4" depart="206" departSpeed="5"/>
    <vehicle id="t5_355" type="car" route="t5" depart="206" departSpeed="5"/>
    <vehicle id="t6_356" type="car" route="t6" depart="206" departSpeed="5"/>
    <vehicle id="NS_357" type="car" route="NS" depart="207" departSpeed="5"/>
    <vehicle id="t4_358" type="car" route="t4" depart="210" departSpeed="5"/>
    <vehicle id="t5_359" type="car" route="t5" depart="210" departSpeed="5"/>
    <vehicle id="t4_360" type="car" route="t4" depart="211" departSpeed="5"/>
    <vehicle id="t5_361" type="car" route="t5" depart="211" departSpeed="5"/>
    <vehicle id="t6_362" type="car" route="t6" depart="211" departSpeed="5"/>