<routes>
            <vType id="car" accel="1.0" decel="4.5" sigma="0.7" length="5" minGap="3" maxSpeed="15" guiShape="passenger"/>

            <route id="right" edges="1i 2o" />
            <route id="left" edges="2i 1o" />
            <route id="down" edges="4i 3o" />
            <route id="up" edges="3i 4o" />
    <vehicle id="right_0" type="car" route="right" depart="7" departSpeed="5"/>
    <vehicle id="down_1" type="car" route="down" depart="8" departSpeed="5"/>
    <vehicle id="left_2" type="car" route="left" depart="12" departSpeed="5"/>
    <vehicle id="left_3" type="car" route="left" depart="16" departSpeed="5"/>
    <vehicle id="down_4" type="car" route="down" depart="18" departSpeed="5"/>
    <vehicle id="right_5" type="car" route="right" depart="20" departSpeed="5"/>
    <vehicle id="down_6" type="car" route="down" depart="21" departSpeed="5"/>
    <vehicle id="down_7" type="car" route="down" depart="23" departSpeed="5"/>
    <vehicle id="down_8" type="car" route="down" depart="26" departSpeed="5"/>
    <vehicle id="left_9" type="car" route="left" depart="31" departSpeed="5"/>
    <vehicle id="left_10" type="car" route="left" depart="32" departSpeed="5"/>
    <vehicle id="right_11" type="car" route="right" depart="33" departSpeed="5"/>
    <vehicle id="right_12" type="car" route="right" depart="34" departSpeed="5"/>
    <vehicle id="left_13" type="car" route="left" depart="38" departSpeed="5"/>
    <vehicle id="right_14" type="car" route="right" depart="40" departSpeed="5"/>
    <vehicle id="right_15" type="car" route="right" depart="41" departSpeed="5"/>
    <vehicle id="up_16" type="car" route="up" depart="48" departSpeed="5"/>
    <vehicle id="left_17" type="car" route="left" depart="54" departSpeed="5"/>
    <vehicle id="up_18" type="car" route="up" depart="55" departSpeed="5"/>
    <vehicle id="up_19" type="car" route="up" depart="57" departSpeed="5"/>
    <vehicle id="down_20" type="car" route="down" depart="61" departSpeed="5"/>
    <vehicle id="left_21" type="car" route="left" depart="68" departSpeed="5"/>
    <vehicle id="left_22" type="car" route="left" depart="73" departSpeed="5"/>
    <vehicle id="down_23" type="car" route="down" depart="73" departSpeed="5"/>
    <vehicle id="up_24" type="car" route="up" depart="77" departSpeed="5"/>
    <vehicle id="up_25" type="car" route="up" depart="86" departSpeed="5"/>
    <vehicle id="right_26" type="car" route="right" depart="92" departSpeed="5"/>
    <vehicle id="down_27" type="car" route="down" depart="92" departSpeed="5"/>
    <vehicle id="up_28" type="car" route="up" depart="94" departSpeed="5"/>
    <vehicle id="left_29" type="car" route="left" depart="95" departSpeed="5"/>
    <vehicle id="down_30" type="car" route="down" depart="97" departSpeed="5"/>
    <vehicle id="up_31" type="car" route="up" depart="101" departSpeed="5"/>
    <vehicle id="down_32" type="car" route="down" depart="103" departSpeed="5"/>
    <vehicle id="right_33" type="car" route="right" depart="104" departSpeed="5"/>
    <vehicle id="left_34" type="car" route="left" depart="108" departSpeed="5"/>
    <vehicle id="down_35" type="car" route="down" depart="108" departSpeed="5"/>
    <vehicle id="down_36" type="car" route="down" depart="112" departSpeed="5"/>
    <vehicle id="up_37" type="car" route="up" depart="120" departSpeed="5"/>
    <vehicle id="right_38" type="car" route="right" depart="128" departSpeed="5"/>
    <vehicle id="down_39" type="car" route="down" depart="128" departSpeed="5"/>
    <vehicle id="right_40" type="car" route="right" depart="130" departSpeed="5"/>
    <vehicle id="up_41" type="car" route="up" depart="130" departSpeed="5"/>
    <vehicle id="right_42" type="car" route="right" depart="131" departSpeed="5"/>
    <vehicle id="down_43" type="car" route="down" depart="135" departSpeed="5"/>
    <vehicle id="down_44" type="car" route="down" depart="142" departSpeed="5"/>
    <vehicle id="down_45" type="car" route="down" depart="149" departSpeed="5"/>
    <vehicle id="up_46" type="car" route="up" depart="150" departSpeed="5"/>
    <vehicle id="left_47" type="car" route="left" depart="153" departSpeed="5"/>
    <vehicle id="down_48" type="car" route="down" depart="157" departSpeed="5"/>
    <vehicle id="right_49" type="car" route="right" depart="159" departSpeed="5"/>
    <vehicle id="down_50" type="car" route="down" depart="161" departSpeed="5"/>
    <vehicle id="left_51" type="car" route="left" depart="168" departSpeed="5"/>
    <vehicle id="right_52" type="car" route="right" depart="170" departSpeed="5"/>
    <vehicle id="down_53" type="car" route="down" depart="170" departSpeed="5"/>
    <vehicle id="left_54" type="car" route="left" depart="171" departSpeed="5"/>
    <vehicle id="left_55" type="car" route="left" depart="173" departSpeed="5"/>
    <vehicle id="up_56" type="car" route="up" depart="176" departSpeed="5"/>
    <vehicle id="left_57" type="car" route="left" depart="189" departSpeed="5"/>
    <vehicle id="right_58" type="car" route="right" depart="190" departSpeed="5"/>
    <vehicle id="up_59" type="car" route="up" depart="190" departSpeed="5"/>
    <vehicle id="down_60" type="car" route="down" depart="191" departSpeed="5"/>
    <vehicle id="up_61" type="car" route="up" depart="197" departSpeed="5"/>
    <vehicle id="right_62" type="car" route="right" depart="202" departSpeed="5"/>
    <vehicle id="left_63" type="car" route="left" depart="205" departSpeed="5"/>
    <vehicle id="up_64" type="car" route="up" depart="206" departSpeed="5"/>
    <vehicle id="left_65" type="car" route="left" depart="211" departSpeed="5"/>
    <vehicle id="left_66" type="car" route="left" depart="215" departSpeed="5"/>
    <vehicle id="right_67" type="car" route="right" depart="224" departSpeed="5"/>
    <vehicle id="down_68" type="car" route="down" depart="225" departSpeed="5"/>
    <vehicle id="left_69" type="car" route="left" depart="228" departSpeed="5"/>
    <vehicle id="down_70" type="car" route="down" depart="228" departSpeed="5"/>
    <vehicle id="up_71" type="car" route="up" depart="228" departSpeed="5"/>
    <vehicle id="left_72" type="car" route="left" depart="229" departSpeed="5"/>
    <vehicle id="left_73" type="car" route="left" depart="232" departSpeed="5"/>
    <vehicle id="down_74" type="car" route="down" depart="238" departSpeed="5"/>
    <vehicle id="down_75" type="car" route="down" depart="240" departSpeed="5"/>
    <vehicle id="down_76" type="car" route="down" depart="245" departSpeed="5"/>
    <vehicle id="up_77" type="car" route="up" depart="245" departSpeed="5"/>
    <vehicle id="down_78" type="car" route="down" depart="249" departSpeed="5"/>
    <vehicle id="down_79" type="car" route="down" depart="250" departSpeed="5"/>
    <vehicle id="right_80" type="car" route="right" depart="252" departSpeed="5"/>
    <vehicle id="right_81" type="car" route="right" depart="259" departSpeed="5"/>
    <vehicle id="down_82" type="car" route="down" depart="263" departSpeed="5"/>
    <vehicle id="left_83" type="car" route="left" depart="268" departSpeed="5"/>
    <vehicle id="down_84" type="car" route="down" depart="278" departSpeed="5"/>
    <vehicle id="down_85" type="car" route="down" depart="280" departSpeed="5"/>
    <vehicle id="up_86" type="car" route="up" depart="280" departSpeed="5"/>
    <vehicle id="up_87" type="car" route="up" depart="281" departSpeed="5"/>
    <vehicle id="up_88" type="car" route="up" depart="285" departSpeed="5"/>
    <vehicle id="right_89" type="car" route="right" depart="289" departSpeed="5"/>
    <vehicle id="up_90" type="car" route="up" depart="299" departSpeed="5"/>
    <vehicle id="right_91" type="car" route="right" depart="300" departSpeed="5"/>
    <vehicle id="down_92" type="car" route="down" depart="300" departSpeed="5"/>
    <vehicle id="left_93" type="car" route="left" depart="304" departSpeed="5"/>
    <vehicle id="up_94" type="car" route="up" depart="304" departSpeed="5"/>
    <vehicle id="up_95" type="car" route="up" depart="310" departSpeed="5"/>
    <vehicle id="left_96" type="car" route="left" depart="311" departSpeed="5"/>
    <vehicle id="right_97" type="car" route="right" depart="312" departSpeed="5"/>
    <vehicle id="left_98" type="car" route="left" depart="320" departSpeed="5"/>
    <vehicle id="up_99" type="car" route="up" depart="321" departSpeed="5"/>
    <vehicle id="right_100" type="car" route="right" depart="323" departSpeed="5"/>
    <vehicle id="down_101" type="car" route="down" depart="324" departSpeed="5"/>
    <vehicle id="right_102" type="car" route="right" depart="332" departSpeed="5"/>
    <vehicle id="left_103" type="car" route="left" depart="337" departSpeed="5"/>
    <vehicle id="left_104" type="car" route="left" depart="338" departSpeed="5"/>
    <vehicle id="up_105" type="car" route="up" depart="339" departSpeed="5"/>
    <vehicle id="right_106" type="car" route="right" depart="341" departSpeed="5"/>
    <vehicle id="down_107" type="car" route="down" depart="351" departSpeed="5"/>
    <vehicle id="left_108" type="car" route="left" depart="354" departSpeed="5"/>
    <vehicle id="down_109" type="car" route="down" depart="355" departSpeed="5"/>
    <vehicle id="right_110" type="car" route="right" depart="362" departSpeed="5"/>
    <vehicle id="right_111" type="car" route="right" depart="364" departSpeed="5"/>
    <vehicle id="up_112" type="car" route="up" depart="366" departSpeed="5"/>
    <vehicle id="right_113" type="car" route="right" depart="369" departSpeed="5"/>
    <vehicle id="left_114" type="car" route="left" depart="370" departSpeed="5"/>
    <vehicle id="down_115" type="car" route="down" depart="374" departSpeed="5"/>
    <vehicle id="left_116" type="car" route="left" depart="375" departSpeed="5"/>
    <vehicle id="right_117" type="car" route="right" depart="378" departSpeed="5"/>
    <vehicle id="left_118" type="car" route="left" depart="379" departSpeed="5"/>
    <vehicle id="up_119" type="car" route="up" depart="381" departSpeed="5"/>
    <vehicle id="up_120" type="car" route="up" depart="382" departSpeed="5"/>
    <vehicle id="right_121" type="car" route="right" depart="383" departSpeed="5"/>
    <vehicle id="right_122" type="car" route="right" depart="387" departSpeed="5"/>
    <vehicle id="down_123" type="car" route="down" depart="388" departSpeed="5"/>
    <vehicle id="up_124" type="car" route="up" depart="390" departSpeed="5"/>
    <vehicle id="up_125" type="car" route="up" depart="392" departSpeed="5"/>
    <vehicle id="up_126" type="car" route="up" depart="396" departSpeed="5"/>
    <vehicle id="up_127" type="car" route="up" depart="398" departSpeed="5"/>
    <vehicle id="right_128" type="car" route="right" depart="400" departSpeed="5"/>
    <vehicle id="down_129" type="car" route="down" depart="403" departSpeed="5"/>
    <vehicle id="left_130" type="car" route="left" depart="407" departSpeed="5"/>
    <vehicle id="up_131" type="car" route="up" depart="407" departSpeed="5"/>
    <vehicle id="down_132" type="car" route="down" depart="410" departSpeed="5"/>
    <vehicle id="right_133" type="car" route="right" depart="412" departSpeed="5"/>
    <vehicle id="up_134" type="car" route="up" depart="412" departSpeed="5"/>
    <vehicle id="down_135" type="car" route="down" depart="416" departSpeed="5"/>
    <vehicle id="right_136" type="car" route="right" depart="419" departSpeed="5"/>
    <vehicle id="down_137" type="car" route="down" depart="419" departSpeed="5"/>
    <vehicle id="left_138" type="car" route="left" depart="425" departSpeed="5"/>
    <vehicle id="up_139" type="car" route="up" depart="425" departSpeed="5"/>
    <vehicle id="left_140" type="car" route="left" depart="427" departSpeed="5"/>
    <vehicle id="left_141" type="car" route="left" depart="429" departSpeed="5"/>
    <vehicle id="down_142" type="car" route="down" depart="430" departSpeed="5"/>
    <vehicle id="down_143" type="car" route="down" depart="434" departSpeed="5"/>
    <vehicle id="up_144" type="car" route="up" depart="435" departSpeed="5"/>
    <vehicle id="down_145" type="car" route="down" depart="437" departSpeed="5"/>
    <vehicle id="down_146" type="car" route="down" depart="438" departSpeed="5"/>
    <vehicle id="left_147" type="car" route="left" depart="445" departSpeed="5"/>
    <vehicle id="down_148" type="car" route="down" depart="445" departSpeed="5"/>
    <vehicle id="left_149" type="car" route="left" depart="446" departSpeed="5"/>
    <vehicle id="down_150" type="car" route="down" depart="448" departSpeed="5"/>
    <vehicle id="left_151" type="car" route="left" depart="450" departSpeed="5"/>
    <vehicle id="right_152" type="car" route="right" depart="458" departSpeed="5"/>
    <vehicle id="left_153" type="car" route="left" depart="458" departSpeed="5"/>
    <vehicle id="left_154" type="car" route="left" depart="459" departSpeed="5"/>
    <vehicle id="down_155" type="car" route="down" depart="459" departSpeed="5"/>
    <vehicle id="left_156" type="car" route="left" depart="466" departSpeed="5"/>
    <vehicle id="right_157" type="car" route="right" depart="467" departSpeed="5"/>
    <vehicle id="left_158" type="car" route="left" depart="467" departSpeed="5"/>
    <vehicle id="right_159" type="car" route="right" depart="469" departSpeed="5"/>
    <vehicle id="down_160" type="car" route="down" depart="471" departSpeed="5"/>
    <vehicle id="down_161" type="car" route="down" depart="474" departSpeed="5"/>
    <vehicle id="down_162" type="car" route="down" depart="477" departSpeed="5"/>
    <vehicle id="up_163" type="car" route="up" depart="480" departSpeed="5"/>
    <vehicle id="right_164" type="car" route="right" depart="482" departSpeed="5"/>
    <vehicle id="right_165" type="car" route="right" depart="483" departSpeed="5"/>
    <vehicle id="down_166" type="car" route="down" depart="485" departSpeed="5"/>
    <vehicle id="down_167" type="car" route="down" depart="487" departSpeed="5"/>
    <vehicle id="left_168" type="car" route="left" depart="489" departSpeed="5"/>
    <vehicle id="right_169" type="car" route="right" depart="491" departSpeed="5"/>
    <vehicle id="right_170" type="car" route="right" depart="495" departSpeed="5"/>
    <vehicle id="right_171" type="car" route="right" depart="497" departSpeed="5"/>
    <vehicle id="left_172" type="car" route="left" depart="498" departSpeed="5"/>
    <vehicle id="up_173" type="car" route="up" depart="502" departSpeed="5"/>
    <vehicle id="down_174" type="car" route="down" depart="505" departSpeed="5"/>
    <vehicle id="left_175" type="car" route="left" depart="506" departSpeed="5"/>
    <vehicle id="down_176" type="car" route="down" depart="509" departSpeed="5"/>
    <vehicle id="right_177" type="car" route="right" depart="514" departSpeed="5"/>
    <vehicle id="right_178" type="car" route="right" depart="516" departSpeed="5"/>
    <vehicle id="right_179" type="car" route="right" depart="518" departSpeed="5"/>
    <vehicle id="left_180" type="car" route="left" depart="519" departSpeed="5"/>
    <vehicle id="down_181" type="car" route="down" depart="519" departSpeed="5"/>
    <vehicle id="left_182" type="car" route="left" depart="520" departSpeed="5"/>
    <vehicle id="up_183" type="car" route="up" depart="522" departSpeed="5"/>
    <vehicle id="down_184" type="car" route="down" depart="523" departSpeed="5"/>
    <vehicle id="left_185" type="car" route="left" depart="525" departSpeed="5"/>
    <vehicle id="left_186" type="car" route="left" depart="526" departSpeed="5"/>
    <vehicle id="down_187" type="car" route="down" depart="527" departSpeed="5"/>
    <vehicle id="left_188" type="car" route="left" depart="528" departSpeed="5"/>
    <vehicle id="up_189" type="car" route="up" depart="536" departSpeed="5"/>
    <vehicle id="right_190" type="car" route="right" depart="538" departSpeed="5"/>
    <vehicle id="right_191" type="car" route="right" depart="540" departSpeed="5"/>
    <vehicle id="down_192" type="car" route="down" depart="541" departSpeed="5"/>
    <vehicle id="up_193" type="car" route="up" depart="543" departSpeed="5"/>
    <vehicle id="left_194" type="car" route="left" depart="546" departSpeed="5"/>
    <vehicle id="up_195" type="car" route="up" depart="547" departSpeed="5"/>
    <vehicle id="right_196" type="car" route="right" depart="549" departSpeed="5"/>
    <vehicle id="left_197" type="car" route="left" depart="552" departSpeed="5"/>
    <vehicle id="up_198" type="car" route="up" depart="552" departSpeed="5"/>
    <vehicle id="left_199" type="car" route="left" depart="561" departSpeed="5"/>
    <vehicle id="up_200" type="car" route="up" depart="564" departSpeed="5"/>
    <vehicle id="right_201" type="car" route="right" depart="567" departSpeed="5"/>
    <vehicle id="left_202" type="car" route="left" depart="568" departSpeed="5"/>
    <vehicle id="up_203" type="car" route="up" depart="572" departSpeed="5"/>
    <vehicle id="left_204" type="car" route="left" depart="573" departSpeed="5"/>
    <vehicle id="down_205" type="car" route="down" depart="574" departSpeed="5"/>
    <vehicle id="left_206" type="car" route="left" depart="581" departSpeed="5"/>
    <vehicle id="left_207" type="car" route="left" depart="585" departSpeed="5"/>
    <vehicle id="up_208" type="car" route="up" depart="586" departSpeed="5"/>
    <vehicle id="up_209" type="car" route="up" depart="590" departSpeed="5"/>
    <vehicle id="left_210" type="car" route="left" depart="591" departSpeed="5"/>
    <vehicle id="right_211" type="car" route="right" depart="595" departSpeed="5"/>
    <vehicle id="left_212" type="car" route="left" depart="595" departSpeed="5"/>
    <vehicle id="up_213" type="car" route="up" depart="595" departSpeed="5"/>
    <vehicle id="right_214" type="car" route="right" depart="597" departSpeed="5"/>
    <vehicle id="left_215" type="car" route="left" depart="600" departSpeed="5"/>
    <vehicle id="right_216" type="car" route="right" depart="603" departSpeed="5"/>
    <vehicle id="left_217" type="car" route="left" depart="603" departSpeed="5"/>
    <vehicle id="down_218" type="car" route="down" depart="609" departSpeed="5"/>
    <vehicle id="down_219" type="car" route="down" depart="611" departSpeed="5"/>
    <vehicle id="down_220" type="car" route="down" depart="616" departSpeed="5"/>
    <vehicle id="up_221" type="car" route="up" depart="616" departSpeed="5"/>
    <vehicle id="left_222" type="car" route="left" depart="617" departSpeed="5"/>
    <vehicle id="down_223" type="car" route="down" depart="617" departSpeed="5"/>
    <vehicle id="up_224" type="car" route="up" depart="620" departSpeed="5"/>
    <vehicle id="left_225" type="car" route="left" depart="623" departSpeed="5"/>
    <vehicle id="right_226" type="car" route="right" depart="624" departSpeed="5"/>
    <vehicle id="left_227" type="car" route="left" depart="624" departSpeed="5"/>
    <vehicle id="down_228" type="car" route="down" depart="628" departSpeed="5"/>
    <vehicle id="left_229" type="car" route="left" depart="632" departSpeed="5"/>
    <vehicle id="up_230" type="car" route="up" depart="633" departSpeed="5"/>
    <vehicle id="right_231" type="car" route="right" depart="636" departSpeed="5"/>
    <vehicle id="down_232" type="car" route="down" depart="641" departSpeed="5"/>
    <vehicle id="right_233" type="car" route="right" depart="643" departSpeed="5"/>
    <vehicle id="right_234" type="car" route="right" depart="650" departSpeed="5"/>
    <vehicle id="right_235" type="car" route="right" depart="654" departSpeed="5"/>
    <vehicle id="left_236" type="car" route="left" depart="654" departSpeed="5"/>
    <vehicle id="up_237" type="car" route="up" depart="658" departSpeed="5"/>
    <vehicle id="left_238" type="car" route="left" depart="660" departSpeed="5"/>
    <vehicle id="left_239" type="car" route="left" depart="663" departSpeed="5"/>
    <vehicle id="down_240" type="car" route="down" depart="663" departSpeed="5"/>
    <vehicle id="left_241" type="car" route="left" depart="666" departSpeed="5"/>
    <vehicle id="down_242" type="car" route="down" depart="666" departSpeed="5"/>
    <vehicle id="down_243" type="car" route="down" depart="674" departSpeed="5"/>
    <vehicle id="up_244" type="car" route="up" depart="675" departSpeed="5"/>
    <vehicle id="down_245" type="car" route="down" depart="676" departSpeed="5"/>
    <vehicle id="right_246" type="car" route="right" depart="677" departSpeed="5"/>
    <vehicle id="up_247" type="car" route="up" depart="678" departSpeed="5"/>
    <vehicle id="down_248" type="car" route="down" depart="679" departSpeed="5"/>
    <vehicle id="right_249" type="car" route="right" depart="680" departSpeed="5"/>
    <vehicle id="left_250" type="car" route="left" depart="680" departSpeed="5"/>
    <vehicle id="down_251" type="car" route="down" depart="700" departSpeed="5"/>
    <vehicle id="right_252" type="car" route="right" depart="702" departSpeed="5"/>
    <vehicle id="down_253" type="car" route="down" depart="702" departSpeed="5"/>
    <vehicle id="left_254" type="car" route="left" depart="709" departSpeed="5"/>
    <vehicle id="left_255" type="car" route="left" depart="712" departSpeed="5"/>
    <vehicle id="left_256" type="car" route="left" depart="714" departSpeed="5"/>
    <vehicle id="right_257" type="car" route="right" depart="716" departSpeed="5"/>
    <vehicle id="right_258" type="car" route="right" depart="720" departSpeed="5"/>
    <vehicle id="up_259" type="car" route="up" depart="722" departSpeed="5"/>
    <vehicle id="right_260" type="car" route="right" depart="723" departSpeed="5"/>
    <vehicle id="down_261" type="car" route="down" depart="724" departSpeed="5"/>
    <vehicle id="down_262" type="car" route="down" depart="725" departSpeed="5"/>
    <vehicle id="left_263" type="car" route="left" depart="727" departSpeed="5"/>
    <vehicle id="down_264" type="car" route="down" depart="730" departSpeed="5"/>
    <vehicle id="up_265" type="car" route="up" depart="732" departSpeed="5"/>
    <vehicle id="down_266" type="car" route="down" depart="733" departSpeed="5"/>
    <vehicle id="right_267" type="car" route="right" depart="738" departSpeed="5"/>
    <vehicle id="left_268" type="car" route="left" depart="741" departSpeed="5"/>
    <vehicle id="right_269" type="car" route="right" depart="742" departSpeed="5"/>
    <vehicle id="right_270" type="car" route="right" depart="743" departSpeed="5"/>
    <vehicle id="down_271" type="car" route="down" depart="746" departSpeed="5"/>
    <vehicle id="down_272" type="car" route="down" depart="747" departSpeed="5"/>
    <vehicle id="left_273" type="car" route="left" depart="749" departSpeed="5"/>
    <vehicle id="left_274" type="car" route="left" depart="753" departSpeed="5"/>
    <vehicle id="up_275" type="car" route="up" depart="753" departSpeed="5"/>
    <vehicle id="up_276" type="car" route="up" depart="757" departSpeed="5"/>
    <vehicle id="down_277" type="car" route="down" depart="759" departSpeed="5"/>
    <vehicle id="left_278" type="car" route="left" depart="760" departSpeed="5"/>
    <vehicle id="up_279" type="car" route="up" depart="763" departSpeed="5"/>
    <vehicle id="right_280" type="car" route="right" depart="767" departSpeed="5"/>
    <vehicle id="up_281" type="car" route="up" depart="769" departSpeed="5"/>
    <vehicle id="up_282" type="car" route="up" depart="770" departSpeed="5"/>
    <vehicle id="up_283" type="car" route="up" depart="773" departSpeed="5"/>
    <vehicle id="up_284" type="car" route="up" depart="774" departSpeed="5"/>
    <vehicle id="up_285" type="car" route="up" depart="776" departSpeed="5"/>
    <vehicle id="right_286" type="car" route="right" depart="778" departSpeed="5"/>
    <vehicle id="down_287" type="car" route="down" depart="778" departSpeed="5"/>
    <vehicle id="right_288" type="car" route="right" depart="779" departSpeed="5"/>
    <vehicle id="up_289" type="car" route="up" depart="782" departSpeed="5"/>
    <vehicle id="up_290" type="car" route="up" depart="783" departSpeed="5"/>
    <vehicle id="right_291" type="car" route="right" depart="787" departSpeed="5"/>
    <vehicle id="up_292" type="car" route="up" depart="788" departSpeed="5"/>
    <vehicle id="up_293" type="car" route="up" depart="789" departSpeed="5"/>
    <vehicle id="right_294" type="car" route="right" depart="796" departSpeed="5"/>
    <vehicle id="right_295" type="car" route="right" depart="800" departSpeed="5"/>
    <vehicle id="up_296" type="car" route="up" depart="801" departSpeed="5"/>
    <vehicle id="left_297" type="car" route="left" depart="802" departSpeed="5"/>
    <vehicle id="up_298" type="car" route="up" depart="804" departSpeed="5"/>
    <vehicle id="down_299" type="car" route="down" depart="805" departSpeed="5"/>
    <vehicle id="down_300" type="car" route="down" depart="811" departSpeed="5"/>
    <vehicle id="down_301" type="car" route="down" depart="814" departSpeed="5"/>
    <vehicle id="left_302" type="car" route="left" depart="816" departSpeed="5"/>
    <vehicle id="down_303" type="car" route="down" depart="816" departSpeed="5"/>
    <vehicle id="right_304" type="car" route="right" depart="825" departSpeed="5"/>
    <vehicle id="down_305" type="car" route="down" depart="825" departSpeed="5"/>
    <vehicle id="left_306" type="car" route="left" depart="826" departSpeed="5"/>
    <vehicle id="up_307" type="car" route="up" depart="829" departSpeed="5"/>
    <vehicle id="right_308" type="car" route="right" depart="831" departSpeed="5"/>
    <vehicle id="right_309" type="car" route="right" depart="837" departSpeed="5"/>
    <vehicle id="right_310" type="car" route="right" depart="838" departSpeed="5"/>
    <vehicle id="up_311" type="car" route="up" depart="838" departSpeed="5"/>
    <vehicle id="down_312" type="car" route="down" depart="850" departSpeed="5"/>
    <vehicle id="up_313" type="car" route="up" depart="851" departSpeed="5"/>
    <vehicle id="right_314" type="car" route="right" depart="864" departSpeed="5"/>
    <vehicle id="left_315" type="car" route="left" depart="864" departSpeed="5"/>
    <vehicle id="down_316" type="car" route="down" depart="864" departSpeed="5"/>
    <vehicle id="right_317" type="car" route="right" depart="866" departSpeed="5"/>
    <vehicle id="left_318" type="car" route="left" depart="867" departSpeed="5"/>
    <vehicle id="left_319" type="car" route="left" depart="868" departSpeed="5"/>
    <vehicle id="down_320" type="car" route="down" depart="868" departSpeed="5"/>
    <vehicle id="up_321" type="car" route="up" depart="868" departSpeed="5"/>
    <vehicle id="right_322" type="car" route="right" depart="869" departSpeed="5"/>
    <vehicle id="left_323" type="car" route="left" depart="869" departSpeed="5"/>
    <vehicle id="down_324" type="car" route="down" depart="871" departSpeed="5"/>
    <vehicle id="up_325" type="car" route="up" depart="871" departSpeed="5"/>
    <vehicle id="right_326" type="car" route="right" depart="876" departSpeed="5"/>
    <vehicle id="left_327" type="car" route="left" depart="877" departSpeed="5"/>
    <vehicle id="right_328" type="car" route="right" depart="880" departSpeed="5"/>
    <vehicle id="left_329" type="car" route="left" depart="883" departSpeed="5"/>
    <vehicle id="right_330" type="car" route="right" depart="884" departSpeed="5"/>
    <vehicle id="right_331" type="car" route="right" depart="887" departSpeed="5"/>
    <vehicle id="left_332" type="car" route="left" depart="889" departSpeed="5"/>
    <vehicle id="up_333" type="car" route="up" depart="890" departSpeed="5"/>
    <vehicle id="down_334" type="car" route="down" depart="894" departSpeed="5"/>
    <vehicle id="down_335" type="car" route="down" depart="895" departSpeed="5"/>
    <vehicle id="right_336" type="car" route="right" depart="900" departSpeed="5"/>
    <vehicle id="left_337" type="car" route="left" depart="900" departSpeed="5"/>
    <vehicle id="left_338" type="car" route="left" depart="903" departSpeed="5"/>
    <vehicle id="left_339" type="car" route="left" depart="904" departSpeed="5"/>
    <vehicle id="down_340" type="car" route="down" depart="906" departSpeed="5"/>
    <vehicle id="down_341" type="car" route="down" depart="907" departSpeed="5"/>
    <vehicle id="down_342" type="car" route="down" depart="908" departSpeed="5"/>
    <vehicle id="left_343" type="car" route="left" depart="915" departSpeed="5"/>
    <vehicle id="left_344" type="car" route="left" depart="917" departSpeed="5"/>
    <vehicle id="up_345" type="car" route="up" depart="920" departSpeed="5"/>
    <vehicle id="left_346" type="car" route="left" depart="924" departSpeed="5"/>
    <vehicle id="down_347" type="car" route="down" depart="924" departSpeed="5"/>
    <vehicle id="right_348" type="car" route="right" depart="929" departSpeed="5"/>
    <vehicle id="right_349" type="car" route="right" depart="931" departSpeed="5"/>
    <vehicle id="down_350" type="car" route="down" depart="932" departSpeed="5"/>
    <vehicle id="right_351" type="car" route="right" depart="935" departSpeed="5"/>
    <vehicle id="right_352" type="car" route="right" depart="938" departSpeed="5"/>
    <vehicle id="up_353" type="car" route="up" depart="938" departSpeed="5"/>
    <vehicle id="left_354" type="car" route="left" depart="939" departSpeed="5"/>
    <vehicle id="up_355" type="car" route="up" depart="943" departSpeed="5"/>
    <vehicle id="down_356" type="car" route="down" depart="944" departSpeed="5"/>
    <vehicle id="up_357" type="car" route="up" depart="948" departSpeed="5"/>
    <vehicle id="right_358" type="car" route="right" depart="949" departSpeed="5"/>
    <vehicle id="right_359" type="car" route="right" depart="951" departSpeed="5"/>
    <vehicle id="right_360" type="car" route="right" depart="954" departSpeed="5"/>
    <vehicle id="up_361" type="car" route="up" depart="955" departSpeed="5"/>
    <vehicle id="up_362" type="car" route="up" depart="968" departSpeed="5"/>
    <vehicle id="up_363" type="car" route="up" depart="970" departSpeed="5"/>
    <vehicle id="left_364" type="car" route="left" depart="971" departSpeed="5"/>