<routes>
            <vType id="car" accel="1.0" decel="4.5" sigma="0.7" length="5" minGap="3" maxSpeed="15" guiShape="passenger"/>

            <route id="right" edges="1i 2o" />
            <route id="left" edges="2i 1o" />
            <route id="down" edges="4i 3o" />
            <route id="up" edges="3i 4o" />
    <vehicle id="left_0" type="car" route="left" depart="2" departSpeed="5"/>
    <vehicle id="up_1" type="car" route="up" depart="2" departSpeed="5"/>
    <vehicle id="left_2" type="car" route="left" depart="3" departSpeed="5"/>
    <vehicle id="up_3" type="car" route="up" depart="8" departSpeed="5"/>
    <vehicle id="up_4" type="car" route="up" depart="9" departSpeed="5"/>
    <vehicle id="up_5" type="car" route="up" depart="10" departSpeed="5"/>
    <vehicle id="down_6" type="car" route="down" depart="14" departSpeed="5"/>
    <vehicle id="down_7" type="car" route="down" depart="15" departSpeed="5"/>
    <vehicle id="left_8" type="car" route="left" depart="20" departSpeed="5"/>
    <vehicle id="up_9" type="car" route="up" depart="21" departSpeed="5"/>
    <vehicle id="down_10" type="car" route="down" depart="22" departSpeed="5"/>
    <vehicle id="up_11" type="car" route="up" depart="22" departSpeed="5"/>
    <vehicle id="right_12" type="car" route="right" depart="24" departSpeed="5"/>
    <vehicle id="up_13" type="car" route="up" depart="27" departSpeed="5"/>
    <vehicle id="down_14" type="car" route="down" depart="28" departSpeed="5"/>
    <vehicle id="left_15" type="car" route="left" depart="29" departSpeed="5"/>
    <vehicle id="right_16" type="car" route="right" depart="30" departSpeed="5"/>
    <vehicle id="down_17" type="car" route="down" depart="33" departSpeed="5"/>
    <vehicle id="right_18" type="car" route="right" depart="34" departSpeed="5"/>
    <vehicle id="left_19" type="car" route="left" depart="38" departSpeed="5"/>
    <vehicle id="right_20" type="car" route="right" depart="40" departSpeed="5"/>
    <vehicle id="left_21" type="car" route="left" depart="42" departSpeed="5"/>
    <vehicle id="up_22" type="car" route="up" depart="48" departSpeed="5"/>
    <vehicle id="down_23" type="car" route="down" depart="50" departSpeed="5"/>
    <vehicle id="left_24" type="car" route="left" depart="52" departSpeed="5"/>
    <vehicle id="down_25" type="car" route="down" depart="52" departSpeed="5"/>
    <vehicle id="up_26" type="car" route="up" depart="54" departSpeed="5"/>
    <vehicle id="up_27" type="car" route="up" depart="57" departSpeed="5"/>
    <vehicle id="left_28" type="car" route="left" depart="58" departSpeed="5"/>
    <vehicle id="down_29" type="car" route="down" depart="61" departSpeed="5"/>
    <vehicle id="left_30" type="car" route="left" depart="64" departSpeed="5"/>
    <vehicle id="right_31" type="car" route="right" depart="68" departSpeed="5"/>
    <vehicle id="up_32" type="car" route="up" depart="68" departSpeed="5"/>
    <vehicle id="left_33" type="car" route="left" depart="70" departSpeed="5"/>
    <vehicle id="right_34" type="car" route="right" depart="71" departSpeed="5"/>
    <vehicle id="down_35" type="car" route="down" depart="71" departSpeed="5"/>
    <vehicle id="left_36" type="car" route="left" depart="76" departSpeed="5"/>
    <vehicle id="right_37" type="car" route="right" depart="81" departSpeed="5"/>
    <vehicle id="up_38" type="car" route="up" depart="81" departSpeed="5"/>
    <vehicle id="right_39" type="car" route="right" depart="84" departSpeed="5"/>
    <vehicle id="up_40" type="car" route="up" depart="93" departSpeed="5"/>
    <vehicle id="right_41" type="car" route="right" depart="94" departSpeed="5"/>
    <vehicle id="down_42" type="car" route="down" depart="96" departSpeed="5"/>
    <vehicle id="up_43" type="car" route="up" depart="101" departSpeed="5"/>
    <vehicle id="right_44" type="car" route="right" depart="102" departSpeed="5"/>
    <vehicle id="up_45" type="car" route="up" depart="105" departSpeed="5"/>
    <vehicle id="up_46" type="car" route="up" depart="110" departSpeed="5"/>
    <vehicle id="down_47" type="car" route="down" depart="111" departSpeed="5"/>
    <vehicle id="right_48" type="car" route="right" depart="113" departSpeed="5"/>
    <vehicle id="down_49" type="car" route="down" depart="113" departSpeed="5"/>
    <vehicle id="up_50" type="car" route="up" depart="113" departSpeed="5"/>
    <vehicle id="down_51" type="car" route="down" depart="115" departSpeed="5"/>
    <vehicle id="right_52" type="car" route="right" depart="123" departSpeed="5"/>
    <vehicle id="right_53" type="car" route="right" depart="127" departSpeed="5"/>
    <vehicle id="right_54" type="car" route="right" depart="128" departSpeed="5"/>
    <vehicle id="up_55" type="car" route="up" depart="128" departSpeed="5"/>
    <vehicle id="down_56" type="car" route="down" depart="131" departSpeed="5"/>
    <vehicle id="up_57" type="car" route="up" depart="135" departSpeed="5"/>
    <vehicle id="right_58" type="car" route="right" depart="137" departSpeed="5"/>
    <vehicle id="left_59" type="car" route="left" depart="140" departSpeed="5"/>
    <vehicle id="right_60" type="car" route="right" depart="141" departSpeed="5"/>
    <vehicle id="left_61" type="car" route="left" depart="142" departSpeed="5"/>
    <vehicle id="right_62" type="car" route="right" depart="146" departSpeed="5"/>
    <vehicle id="up_63" type="car" route="up" depart="146" departSpeed="5"/>
    <vehicle id="down_64" type="car" route="down" depart="148" departSpeed="5"/>
    <vehicle id="up_65" type="car" route="up" depart="149" departSpeed="5"/>
    <vehicle id="right_66" type="car" route="right" depart="151" departSpeed="5"/>
    <vehicle id="right_67" type="car" route="right" depart="155" departSpeed="5"/>
    <vehicle id="up_68" type="car" route="up" depart="155" departSpeed="5"/>
    <vehicle id="up_69" type="car" route="up" depart="158" departSpeed="5"/>
    <vehicle id="left_70" type="car" route="left" depart="161" departSpeed="5"/>
    <vehicle id="right_71" type="car" route="right" depart="165" departSpeed="5"/>
    <vehicle id="right_72" type="car" route="right" depart="169" departSpeed="5"/>
    <vehicle id="left_73" type="car" route="left" depart="170" departSpeed="5"/>
    <vehicle id="up_74" type="car" route="up" depart="170" departSpeed="5"/>
    <vehicle id="left_75" type="car" route="left" depart="171" departSpeed="5"/>
    <vehicle id="right_76" type="car" route="right" depart="180" departSpeed="5"/>
    <vehicle id="up_77" type="car" route="up" depart="181" departSpeed="5"/>
    <vehicle id="up_78" type="car" route="up" depart="182" departSpeed="5"/>
    <vehicle id="down_79" type="car" route="down" depart="184" departSpeed="5"/>
    <vehicle id="up_80" type="car" route="up" depart="186" departSpeed="5"/>
    <vehicle id="right_81" type="car" route="right" depart="187" departSpeed="5"/>
    <vehicle id="right_82" type="car" route="right" depart="190" departSpeed="5"/>
    <vehicle id="left_83" type="car" route="left" depart="192" departSpeed="5"/>
    <vehicle id="left_84" type="car" route="left" depart="194" departSpeed="5"/>
    <vehicle id="up_85" type="car" route="up" depart="194" departSpeed="5"/>
    <vehicle id="left_86" type="car" route="left" depart="196" departSpeed="5"/>
    <vehicle id="down_87" type="car" route="down" depart="196" departSpeed="5"/>
    <vehicle id="right_88" type="car" route="right" depart="197" departSpeed="5"/>
    <vehicle id="down_89" type="car" route="down" depart="203" departSpeed="5"/>
    <vehicle id="right_90" type="car" route="right" depart="206" departSpeed="5"/>
    <vehicle id="left_91" type="car" route="left" depart="207" departSpeed="5"/>
    <vehicle id="down_92" type="car" route="down" depart="207" departSpeed="5"/>
    <vehicle id="up_93" type="car" route="up" depart="209" departSpeed="5"/>
    <vehicle id="right_94" type="car" route="right" depart="211" departSpeed="5"/>
    <vehicle id="up_95" type="car" route="up" depart="211" departSpeed="5"/>
    <vehicle id="left_96" type="car" route="left" depart="214" departSpeed="5"/>
    <vehicle id="right_97" type="car" route="right" depart="215" departSpeed="5"/>
    <vehicle id="left_98" type="car" route="left" depart="216" departSpeed="5"/>
    <vehicle id="left_99" type="car" route="left" depart="218" departSpeed="5"/>
    <vehicle id="right_100" type="car" route="right" depart="219" departSpeed="5"/>
    <vehicle id="up_101" type="car" route="up" depart="219" departSpeed="5"/>
    <vehicle id="down_102" type="car" route="down" depart="221" departSpeed="5"/>
    <vehicle id="up_103" type="car" route="up" depart="222" departSpeed="5"/>
    <vehicle id="left_104" type="car" route="left" depart="226" departSpeed="5"/>
    <vehicle id="left_105" type="car" route="left" depart="227" departSpeed="5"/>
    <vehicle id="up_106" type="car" route="up" depart="227" departSpeed="5"/>
    <vehicle id="up_107" type="car" route="up" depart="229" departSpeed="5"/>
    <vehicle id="right_108" type="car" route="right" depart="232" departSpeed="5"/>
    <vehicle id="down_109" type="car" route="down" depart="232" departSpeed="5"/>
    <vehicle id="right_110" type="car" route="right" depart="233" departSpeed="5"/>
    <vehicle id="down_111" type="car" route="down" depart="233" departSpeed="5"/>
    <vehicle id="left_112" type="car" route="left" depart="235" departSpeed="5"/>
    <vehicle id="left_113" type="car" route="left" depart="236" departSpeed="5"/>
    <vehicle id="right_114" type="car" route="right" depart="238" departSpeed="5"/>
    <vehicle id="down_115" type="car" route="down" depart="238" departSpeed="5"/>
    <vehicle id="left_116" type="car" route="left" depart="239" departSpeed="5"/>
    <vehicle id="left_117" type="car" route="left" depart="246" departSpeed="5"/>
    <vehicle id="left_118" type="car" route="left" depart="252" departSpeed="5"/>
    <vehicle id="down_119" type="car" route="down" depart="257" departSpeed="5"/>
    <vehicle id="up_120" type="car" route="up" depart="258" departSpeed="5"/>
    <vehicle id="up_121" type="car" route="up" depart="268" departSpeed="5"/>
    <vehicle id="up_122" type="car" route="up" depart="270" departSpeed="5"/>
    <vehicle id="left_123" type="car" route="left" depart="273" departSpeed="5"/>
    <vehicle id="left_124" type="car" route="left" depart="274" departSpeed="5"/>
    <vehicle id="up_125" type="car" route="up" depart="275" departSpeed="5"/>
    <vehicle id="right_126" type="car" route="right" depart="284" departSpeed="5"/>
    <vehicle id="right_127" type="car" route="right" depart="286" departSpeed="5"/>
    <vehicle id="down_128" type="car" route="down" depart="287" departSpeed="5"/>
    <vehicle id="up_129" type="car" route="up" depart="288" departSpeed="5"/>
    <vehicle id="down_130" type="car" route="down" depart="289" departSpeed="5"/>
    <vehicle id="down_131" type="car" route="down" depart="293" departSpeed="5"/>
    <vehicle id="down_132" type="car" route="down" depart="297" departSpeed="5"/>
    <vehicle id="left_133" type="car" route="left" depart="303" departSpeed="5"/>
    <vehicle id="up_134" type="car" route="up" depart="303" departSpeed="5"/>
    <vehicle id="down_135" type="car" route="down" depart="306" departSpeed="5"/>
    <vehicle id="up_136" type="car" route="up" depart="308" departSpeed="5"/>
    <vehicle id="up_137" type="car" route="up" depart="315" departSpeed="5"/>
    <vehicle id="right_138" type="car" route="right" depart="317" departSpeed="5"/>
    <vehicle id="left_139" type="car" route="left" depart="317" departSpeed="5"/>
    <vehicle id="right_140" type="car" route="right" depart="319" departSpeed="5"/>
    <vehicle id="right_141" type="car" route="right" depart="326" departSpeed="5"/>
    <vehicle id="right_142" type="car" route="right" depart="327" departSpeed="5"/>
    <vehicle id="left_143" type="car" route="left" depart="336" departSpeed="5"/>
    <vehicle id="down_144" type="car" route="down" depart="339" departSpeed="5"/>
    <vehicle id="up_145" type="car" route="up" depart="341" departSpeed="5"/>
    <vehicle id="right_146" type="car" route="right" depart="349" departSpeed="5"/>
    <vehicle id="up_147" type="car" route="up" depart="350" departSpeed="5"/>
    <vehicle id="left_148" type="car" route="left" depart="352" departSpeed="5"/>
    <vehicle id="down_149" type="car" route="down" depart="355" departSpeed="5"/>
    <vehicle id="right_150" type="car" route="right" depart="357" departSpeed="5"/>
    <vehicle id="left_151" type="car" route="left" depart="360" departSpeed="5"/>
    <vehicle id="right_152" type="car" route="right" depart="361" departSpeed="5"/>
    <vehicle id="left_153" type="car" route="left" depart="361" departSpeed="5"/>
    <vehicle id="up_154" type="car" route="up" depart="362" departSpeed="5"/>
    <vehicle id="up_155" type="car" route="up" depart="365" departSpeed="5"/>
    <vehicle id="up_156" type="car" route="up" depart="366" departSpeed="5"/>
    <vehicle id="up_157" type="car" route="up" depart="369" departSpeed="5"/>
    <vehicle id="right_158" type="car" route="right" depart="371" departSpeed="5"/>
    <vehicle id="left_159" type="car" route="left" depart="371" departSpeed="5"/>
    <vehicle id="right_160" type="car" route="right" depart="381" departSpeed="5"/>
    <vehicle id="left_161" type="car" route="left" depart="381" departSpeed="5"/>
    <vehicle id="right_162" type="car" route="right" depart="382" departSpeed="5"/>
    <vehicle id="up_163" type="car" route="up" depart="382" departSpeed="5"/>
    <vehicle id="left_164" type="car" route="left" depart="383" departSpeed="5"/>
    <vehicle id="left_165" type="car" route="left" depart="384" departSpeed="5"/>
    <vehicle id="down_166" type="car" route="down" depart="384" departSpeed="5"/>
    <vehicle id="up_167" type="car" route="up" depart="388" departSpeed="5"/>
    <vehicle id="left_168" type="car" route="left" depart="391" departSpeed="5"/>
    <vehicle id="left_169" type="car" route="left" depart="393" departSpeed="5"/>
    <vehicle id="down_170" type="car" route="down" depart="395" departSpeed="5"/>
    <vehicle id="up_171" type="car" route="up" depart="395" departSpeed="5"/>
    <vehicle id="up_172" type="car" route="up" depart="400" departSpeed="5"/>
    <vehicle id="right_173" type="car" route="right" depart="405" departSpeed="5"/>
    <vehicle id="left_174" type="car" route="left" depart="406" departSpeed="5"/>
    <vehicle id="right_175" type="car" route="right" depart="407" departSpeed="5"/>
    <vehicle id="down_176" type="car" route="down" depart="408" departSpeed="5"/>
    <vehicle id="up_177" type="car" route="up" depart="413" departSpeed="5"/>
    <vehicle id="left_178" type="car" route="left" depart="417" departSpeed="5"/>
    <vehicle id="up_179" type="car" route="up" depart="417" departSpeed="5"/>
    <vehicle id="down_180" type="car" route="down" depart="420" departSpeed="5"/>
    <vehicle id="up_181" type="car" route="up" depart="420" departSpeed="5"/>
    <vehicle id="up_182" type="car" route="up" depart="421" departSpeed="5"/>
    <vehicle id="down_183" type="car" route="down" depart="422" departSpeed="5"/>
    <vehicle id="right_184" type="car" route="right" depart="423" departSpeed="5"/>
    <vehicle id="right_185" type="car" route="right" depart="425" departSpeed="5"/>
    <vehicle id="up_186" type="car" route="up" depart="427" departSpeed="5"/>
    <vehicle id="left_187" type="car" route="left" depart="430" departSpeed="5"/>
    <vehicle id="right_188" type="car" route="right" depart="433" departSpeed="5"/>
    <vehicle id="left_189" type="car" route="left" depart="433" departSpeed="5"/>
    <vehicle id="down_190" type="car" route="down" depart="435" departSpeed="5"/>
    <vehicle id="up_191" type="car" route="up" depart="438" departSpeed="5"/>
    <vehicle id="up_192" type="car" route="up" depart="439" departSpeed="5"/>
    <vehicle id="left_193" type="car" route="left" depart="440" departSpeed="5"/>
    <vehicle id="up_194" type="car" route="up" depart="443" departSpeed="5"/>
    <vehicle id="right_195" type="car" route="right" depart="449" departSpeed="5"/>
    <vehicle id="left_196" type="car" route="left" depart="449" departSpeed="5"/>
    <vehicle id="right_197" type="car" route="right" depart="450" departSpeed="5"/>
    <vehicle id="left_198" type="car" route="left" depart="461" departSpeed="5"/>
    <vehicle id="up_199" type="car" route="up" depart="463" departSpeed="5"/>
    <vehicle id="up_200" type="car" route="up" depart="465" departSpeed="5"/>
    <vehicle id="up_201" type="car" route="up" depart="467" departSpeed="5"/>
    <vehicle id="down_202" type="car" route="down" depart="468" departSpeed="5"/>
    <vehicle id="up_203" type="car" route="up" depart="471" departSpeed="5"/>
    <vehicle id="right_204" type="car" route="right" depart="473" departSpeed="5"/>
    <vehicle id="up_205" type="car" route="up" depart="473" departSpeed="5"/>
    <vehicle id="right_206" type="car" route="right" depart="474" departSpeed="5"/>
    <vehicle id="left_207" type="car" route="left" depart="477" departSpeed="5"/>
    <vehicle id="left_208" type="car" route="left" depart="492" departSpeed="5"/>
    <vehicle id="right_209" type="car" route="right" depart="495" departSpeed="5"/>
    <vehicle id="up_210" type="car" route="up" depart="495" departSpeed="5"/>
    <vehicle id="left_211" type="car" route="left" depart="497" departSpeed="5"/>
    <vehicle id="down_212" type="car" route="down" depart="500" departSpeed="5"/>
    <vehicle id="right_213" type="car" route="right" depart="501" departSpeed="5"/>
    <vehicle id="down_214" type="car" route="down" depart="502" departSpeed="5"/>
    <vehicle id="up_215" type="car" route="up" depart="503" departSpeed="5"/>
    <vehicle id="down_216" type="car" route="down" depart="504" departSpeed="5"/>
    <vehicle id="up_217" type="car" route="up" depart="508" departSpeed="5"/>
    <vehicle id="up_218" type="car" route="up" depart="510" departSpeed="5"/>
    <vehicle id="up_219" type="car" route="up" depart="513" departSpeed="5"/>
    <vehicle id="right_220" type="car" route="right" depart="516" departSpeed="5"/>
    <vehicle id="up_221" type="car" route="up" depart="517" departSpeed="5"/>
    <vehicle id="right_222" type="car" route="right" depart="521" departSpeed="5"/>
    <vehicle id="right_223" type="car" route="right" depart="524" departSpeed="5"/>
    <vehicle id="left_224" type="car" route="left" depart="524" departSpeed="5"/>
    <vehicle id="up_225" type="car" route="up" depart="525" departSpeed="5"/>
    <vehicle id="left_226" type="car" route="left" depart="528" departSpeed="5"/>
    <vehicle id="up_227" type="car" route="up" depart="531" departSpeed="5"/>
    <vehicle id="left_228" type="car" route="left" depart="533" departSpeed="5"/>
    <vehicle id="right_229" type="car" route="right" depart="534" departSpeed="5"/>
    <vehicle id="up_230" type="car" route="up" depart="537" departSpeed="5"/>
    <vehicle id="left_231" type="car" route="left" depart="538" departSpeed="5"/>
    <vehicle id="down_232" type="car" route="down" depart="540" departSpeed="5"/>
    <vehicle id="left_233" type="car" route="left" depart="541" departSpeed="5"/>
    <vehicle id="down_234" type="car" route="down" depart="541" departSpeed="5"/>
    <vehicle id="left_235" type="car" route="left" depart="542" departSpeed="5"/>
    <vehicle id="left_236" type="car" route="left" depart="543" departSpeed="5"/>
    <vehicle id="down_237" type="car" route="down" depart="543" departSpeed="5"/>
    <vehicle id="up_238" type="car" route="up" depart="552" departSpeed="5"/>
    <vehicle id="left_239" type="car" route="left" depart="555" departSpeed="5"/>
    <vehicle id="down_240" type="car" route="down" depart="555" departSpeed="5"/>
    <vehicle id="up_241" type="car" route="up" depart="556" departSpeed="5"/>
    <vehicle id="left_242" type="car" route="left" depart="560" departSpeed="5"/>
    <vehicle id="down_243" type="car" route="down" depart="560" departSpeed="5"/>
    <vehicle id="up_244" type="car" route="up" depart="565" departSpeed="5"/>
    <vehicle id="up_245" type="car" route="up" depart="568" departSpeed="5"/>
    <vehicle id="up_246" type="car" route="up" depart="569" departSpeed="5"/>
    <vehicle id="right_247" type="car" route="right" depart="571" departSpeed="5"/>
    <vehicle id="down_248" type="car" route="down" depart="572" departSpeed="5"/>
    <vehicle id="right_249" type="car" route="right" depart="573" departSpeed="5"/>
    <vehicle id="down_250" type="car" route="down" depart="576" departSpeed="5"/>
    <vehicle id="up_251" type="car" route="up" depart="580" departSpeed="5"/>
    <vehicle id="left_252" type="car" route="left" depart="585" departSpeed="5"/>
    <vehicle id="left_253" type="car" route="left" depart="586" departSpeed="5"/>
    <vehicle id="up_254" type="car" route="up" depart="586" departSpeed="5"/>
    <vehicle id="left_255" type="car" route="left" depart="591" departSpeed="5"/>
    <vehicle id="up_256" type="car" route="up" depart="596" departSpeed="5"/>
    <vehicle id="right_257" type="car" route="right" depart="599" departSpeed="5"/>
    <vehicle id="left_258" type="car" route="left" depart="599" departSpeed="5"/>
    <vehicle id="left_259" type="car" route="left" depart="600" departSpeed="5"/>
    <vehicle id="down_260" type="car" route="down" depart="606" departSpeed="5"/>
    <vehicle id="left_261" type="car" route="left" depart="607" departSpeed="5"/>
    <vehicle id="right_262" type="car" route="right" depart="610" departSpeed="5"/>
    <vehicle id="up_263" type="car" route="up" depart="616" departSpeed="5"/>
    <vehicle id="left_264" type="car" route="left" depart="617" departSpeed="5"/>
    <vehicle id="left_265" type="car" route="left" depart="619" departSpeed="5"/>
    <vehicle id="right_266" type="car" route="right" depart="620" departSpeed="5"/>
    <vehicle id="right_267" type="car" route="right" depart="621" departSpeed="5"/>
    <vehicle id="left_268" type="car" route="left" depart="621" departSpeed="5"/>
    <vehicle id="left_269" type="car" route="left" depart="623" departSpeed="5"/>
    <vehicle id="up_270" type="car" route="up" depart="624" departSpeed="5"/>
    <vehicle id="up_271" type="car" route="up" depart="628" departSpeed="5"/>
    <vehicle id="right_272" type="car" route="right" depart="631" departSpeed="5"/>
    <vehicle id="right_273" type="car" route="right" depart="634" departSpeed="5"/>
    <vehicle id="left_274" type="car" route="left" depart="634" departSpeed="5"/>
    <vehicle id="left_275" type="car" route="left" depart="636" departSpeed="5"/>
    <vehicle id="left_276" type="car" route="left" depart="637" departSpeed="5"/>
    <vehicle id="left_277" type="car" route="left" depart="638" departSpeed="5"/>
    <vehicle id="down_278" type="car" route="down" depart="640" departSpeed="5"/>
    <vehicle id="down_279" type="car" route="down" depart="645" departSpeed="5"/>
    <vehicle id="left_280" type="car" route="left" depart="649" departSpeed="5"/>
    <vehicle id="down_281" type="car" route="down" depart="653" departSpeed="5"/>
    <vehicle id="down_282" type="car" route="down" depart="656" departSpeed="5"/>
    <vehicle id="down_283" type="car" route="down" depart="657" departSpeed="5"/>
    <vehicle id="up_284" type="car" route="up" depart="658" departSpeed="5"/>
    <vehicle id="right_285" type="car" route="right" depart="662" departSpeed="5"/>
    <vehicle id="left_286" type="car" route="left" depart="662" departSpeed="5"/>
    <vehicle id="right_287" type="car" route="right" depart="664" departSpeed="5"/>
    <vehicle id="left_288" type="car" route="left" depart="664" departSpeed="5"/>
    <vehicle id="down_289" type="car" route="down" depart="670" departSpeed="5"/>
    <vehicle id="left_290" type="car" route="left" depart="671" departSpeed="5"/>
    <vehicle id="up_291" type="car" route="up" depart="672" departSpeed="5"/>
    <vehicle id="right_292" type="car" route="right" depart="682" departSpeed="5"/>
    <vehicle id="up_293" type="car" route="up" depart="683" departSpeed="5"/>
    <vehicle id="left_294" type="car" route="left" depart="685" departSpeed="5"/>
    <vehicle id="left_295" type="car" route="left" depart="686" departSpeed="5"/>
    <vehicle id="right_296" type="car" route="right" depart="706" departSpeed="5"/>
    <vehicle id="up_297" type="car" route="up" depart="708" departSpeed="5"/>
    <vehicle id="left_298" type="car" route="left" depart="710" departSpeed="5"/>
    <vehicle id="down_299" type="car" route="down" depart="711" departSpeed="5"/>
    <vehicle id="down_300" type="car" route="down" depart="712" departSpeed="5"/>
    <vehicle id="left_301" type="car" route="left" depart="714" departSpeed="5"/>
    <vehicle id="up_302" type="car" route="up" depart="718" departSpeed="5"/>
    <vehicle id="left_303" type="car" route="left" depart="723" departSpeed="5"/>
    <vehicle id="down_304" type="car" route="down" depart="723" departSpeed="5"/>
    <vehicle id="up_305" type="car" route="up" depart="726" departSpeed="5"/>
    <vehicle id="right_306" type="car" route="right" depart="727" departSpeed="5"/>
    <vehicle id="down_307" type="car" route="down" depart="727" departSpeed="5"/>
    <vehicle id="up_308" type="car" route="up" depart="727" departSpeed="5"/>
    <vehicle id="left_309" type="car" route="left" depart="734" departSpeed="5"/>
    <vehicle id="down_310" type="car" route="down" depart="734" departSpeed="5"/>
    <vehicle id="up_311" type="car" route="up" depart="735" departSpeed="5"/>
    <vehicle id="up_312" type="car" route="up" depart="740" departSpeed="5"/>
    <vehicle id="down_313" type="car" route="down" depart="741" departSpeed="5"/>
    <vehicle id="right_314" type="car" route="right" depart="744" departSpeed="5"/>
    <vehicle id="down_315" type="car" route="down" depart="747" departSpeed="5"/>
    <vehicle id="up_316" type="car" route="up" depart="749" departSpeed="5"/>
    <vehicle id="down_317" type="car" route="down" depart="750" departSpeed="5"/>
    <vehicle id="left_318" type="car" route="left" depart="753" departSpeed="5"/>
    <vehicle id="down_319" type="car" route="down" depart="755" departSpeed="5"/>
    <vehicle id="left_320" type="car" route="left" depart="760" departSpeed="5"/>
    <vehicle id="down_321" type="car" route="down" depart="761" departSpeed="5"/>
    <vehicle id="right_322" type="car" route="right" depart="764" departSpeed="5"/>
    <vehicle id="down_323" type="car" route="down" depart="769" departSpeed="5"/>
    <vehicle id="right_324" type="car" route="right" depart="774" departSpeed="5"/>
    <vehicle id="down_325" type="car" route="down" depart="774" departSpeed="5"/>
    <vehicle id="right_326" type="car" route="right" depart="776" departSpeed="5"/>
    <vehicle id="down_327" type="car" route="down" depart="778" departSpeed="5"/>
    <vehicle id="left_328" type="car" route="left" depart="785" departSpeed="5"/>
    <vehicle id="left_329" type="car" route="left" depart="786" departSpeed="5"/>
    <vehicle id="up_330" type="car" route="up" depart="790" departSpeed="5"/>
    <vehicle id="left_331" type="car" route="left" depart="793" departSpeed="5"/>
    <vehicle id="down_332" type="car" route="down" depart="794" departSpeed="5"/>
    <vehicle id="up_333" type="car" route="up" depart="798" departSpeed="5"/>
    <vehicle id="right_334" type="car" route="right" depart="802" departSpeed="5"/>
    <vehicle id="right_335" type="car" route="right" depart="803" departSpeed="5"/>
    <vehicle id="left_336" type="car" route="left" depart="810" departSpeed="5"/>
    <vehicle id="down_337" type="car" route="down" depart="811" departSpeed="5"/>
    <vehicle id="up_338" type="car" route="up" depart="811" departSpeed="5"/>
    <vehicle id="down_339" type="car" route="down" depart="815" departSpeed="5"/>
    <vehicle id="right_340" type="car" route="right" depart="819" departSpeed="5"/>
    <vehicle id="down_341" type="car" route="down" depart="822" departSpeed="5"/>
    <vehicle id="down_342" type="car" route="down" depart="826" departSpeed="5"/>
    <vehicle id="right_343" type="car" route="right" depart="827" departSpeed="5"/>
    <vehicle id="up_344" type="car" route="up" depart="829" departSpeed="5"/>
    <vehicle id="down_345" type="car" route="down" depart="838" departSpeed="5"/>
    <vehicle id="right_346" type="car" route="right" depart="842" departSpeed="5"/>
    <vehicle id="down_347" type="car" route="down" depart="846" departSpeed="5"/>
    <vehicle id="right_348" type="car" route="right" depart="848" departSpeed="5"/>
    <vehicle id="down_349" type="car" route="down" depart="848" departSpeed="5"/>
    <vehicle id="right_350" type="car" route="right" depart="851" departSpeed="5"/>
    <vehicle id="right_351" type="car" route="right" depart="852" departSpeed="5"/>
    <vehicle id="up_352" type="car" route="up" depart="853" departSpeed="5"/>
    <vehicle id="down_353" type="car" route="down" depart="854" departSpeed="5"/>
    <vehicle id="down_354" type="car" route="down" depart="858" departSpeed="5"/>
    <vehicle id="right_355" type="car" route="right" depart="859" departSpeed="5"/>
    <vehicle id="up_356" type="car" route="up" depart="861" departSpeed="5"/>
    <vehicle id="down_357" type="car" route="down" depart="865" departSpeed="5"/>
    <vehicle id="up_358" type="car" route="up" depart="865" departSpeed="5"/>
    <vehicle id="up_359" type="car" route="up" depart="867" departSpeed="5"/>
    <vehicle id="left_360" type="car" route="left" depart="872" departSpeed="5"/>
    <vehicle id="right_361" type="car" route="right" depart="873" departSpeed="5"/>
    <vehicle id="right_362" type="car" route="right" depart="875" departSpeed="5"/>
    <vehicle id="left_363" type="car" route="left" depart="878" departSpeed="5"/>
    <vehicle id="up_364" type="car" route="up" depart="878" departSpeed="5"/>
    <vehicle id="right_365" type="car" route="right" depart="881" departSpeed="5"/>