<routes>
            <vType id="car" accel="1.0" decel="4.5" sigma="0.7" length="5" minGap="3" maxSpeed="15" guiShape="passenger"/>

            <route id="right" edges="1i 2o" />
            <route id="left" edges="2i 1o" />
            <route id="down" edges="4i 3o" />
            <route id="up" edges="3i 4o" />
    <vehicle id="down_0" type="car" route="down" depart="2" departSpeed="5"/>
    <vehicle id="up_1" type="car" route="up" depart="2" departSpeed="5"/>
    <vehicle id="right_2" type="car" route="right" depart="5" departSpeed="5"/>
    <vehicle id="up_3" type="car" route="up" depart="5" departSpeed="5"/>
    <vehicle id="right_4" type="car" route="right" depart="6" departSpeed="5"/>
    <vehicle id="up_5" type="car" route="up" depart="6" departSpeed="5"/>
    <vehicle id="right_6" type="car" route="right" depart="7" departSpeed="5"/>
    <vehicle id="left_7" type="car" route="left" depart="15" departSpeed="5"/>
    <vehicle id="right_8" type="car" route="right" depart="17" departSpeed="5"/>
    <vehicle id="left_9" type="car" route="left" depart="22" departSpeed="5"/>
    <vehicle id="right_10" type="car" route="right" depart="24" departSpeed="5"/>
    <vehicle id="up_11" type="car" route="up" depart="24" departSpeed="5"/>
    <vehicle id="up_12" type="car" route="up" depart="27" departSpeed="5"/>
    <vehicle id="down_13" type="car" route="down" depart="29" departSpeed="5"/>
    <vehicle id="right_14" type="car" route="right" depart="31" departSpeed="5"/>
    <vehicle id="right_15" type="car" route="right" depart="32" departSpeed="5"/>
    <vehicle id="down_16" type="car" route="down" depart="32" departSpeed="5"/>
    <vehicle id="right_17" type="car" route="right" depart="33" departSpeed="5"/>
    <vehicle id="right_18" type="car" route="right" depart="35" departSpeed="5"/>
    <vehicle id="left_19" type="car" route="left" depart="39" departSpeed="5"/>
    <vehicle id="up_20" type="car" route="up" depart="40" departSpeed="5"/>
    <vehicle id="up_21" type="car" route="up" depart="42" departSpeed="5"/>
    <vehicle id="right_22" type="car" route="right" depart="46" departSpeed="5"/>
    <vehicle id="left_23" type="car" route="left" depart="48" departSpeed="5"/>
    <vehicle id="right_24" type="car" route="right" depart="54" departSpeed="5"/>
    <vehicle id="right_25" type="car" route="right" depart="56" departSpeed="5"/>
    <vehicle id="left_26" type="car" route="left" depart="60" departSpeed="5"/>
    <vehicle id="down_27" type="car" route="down" depart="60" departSpeed="5"/>
    <vehicle id="right_28" type="car" route="right" depart="62" departSpeed="5"/>
    <vehicle id="right_29" type="car" route="right" depart="63" departSpeed="5"/>
    <vehicle id="up_30" type="car" route="up" depart="63" departSpeed="5"/>
    <vehicle id="left_31" type="car" route="left" depart="64" departSpeed="5"/>
    <vehicle id="down_32" type="car" route="down" depart="64" departSpeed="5"/>
    <vehicle id="right_33" type="car" route="right" depart="65" departSpeed="5"/>
    <vehicle id="left_34" type="car" route="left" depart="65" departSpeed="5"/>
    <vehicle id="down_35" type="car" route="down" depart="65" departSpeed="5"/>
    <vehicle id="up_36" type="car" route="up" depart="65" departSpeed="5"/>
    <vehicle id="up_37" type="car" route="up" depart="67" departSpeed="5"/>
    <vehicle id="right_38" type="car" route="right" depart="69" departSpeed="5"/>
    <vehicle id="left_39" type="car" route="left" depart="70" departSpeed="5"/>
    <vehicle id="up_40" type="car" route="up" depart="71" departSpeed="5"/>
    <vehicle id="right_41" type="car" route="right" depart="77" departSpeed="5"/>
    <vehicle id="up_42" type="car" route="up" depart="77" departSpeed="5"/>
    <vehicle id="right_43" type="car" route="right" depart="78" departSpeed="5"/>
    <vehicle id="right_44" type="car" route="right" depart="85" departSpeed="5"/>
    <vehicle id="up_45" type="car" route="up" depart="85" departSpeed="5"/>
    <vehicle id="right_46" type="car" route="right" depart="88" departSpeed="5"/>
    <vehicle id="up_47" type="car" route="up" depart="89" departSpeed="5"/>
    <vehicle id="left_48" type="car" route="left" depart="100" departSpeed="5"/>
    <vehicle id="up_49" type="car" route="up" depart="102" departSpeed="5"/>
    <vehicle id="left_50" type="car" route="left" depart="103" departSpeed="5"/>
    <vehicle id="up_51" type="car" route="up" depart="105" departSpeed="5"/>
    <vehicle id="right_52" type="car" route="right" depart="106" departSpeed="5"/>
    <vehicle id="down_53" type="car" route="down" depart="106" departSpeed="5"/>
    <vehicle id="up_54" type="car" route="up" depart="106" departSpeed="5"/>
    <vehicle id="right_55" type="car" route="right" depart="109" departSpeed="5"/>
    <vehicle id="left_56" type="car" route="left" depart="110" departSpeed="5"/>
    <vehicle id="down_57" type="car" route="down" depart="110" departSpeed="5"/>
    <vehicle id="left_58" type="car" route="left" depart="111" departSpeed="5"/>
    <vehicle id="down_59" type="car" route="down" depart="111" departSpeed="5"/>
    <vehicle id="right_60" type="car" route="right" depart="114" departSpeed="5"/>
    <vehicle id="up_61" type="car" route="up" depart="114" departSpeed="5"/>
    <vehicle id="right_62" type="car" route="right" depart="115" departSpeed="5"/>
    <vehicle id="up_63" type="car" route="up" depart="118" departSpeed="5"/>
    <vehicle id="up_64" type="car" route="up" depart="119" departSpeed="5"/>
    <vehicle id="left_65" type="car" route="left" depart="120" departSpeed="5"/>
    <vehicle id="left_66" type="car" route="left" depart="121" departSpeed="5"/>
    <vehicle id="left_67" type="car" route="left" depart="129" departSpeed="5"/>
    <vehicle id="down_68" type="car" route="down" depart="129" departSpeed="5"/>
    <vehicle id="up_69" type="car" route="up" depart="129" departSpeed="5"/>
    <vehicle id="left_70" type="car" route="left" depart="135" departSpeed="5"/>
    <vehicle id="right_71" type="car" route="right" depart="136" departSpeed="5"/>
    <vehicle id="left_72" type="car" route="left" depart="136" departSpeed="5"/>
    <vehicle id="up_73" type="car" route="up" depart="138" departSpeed="5"/>
    <vehicle id="left_74" type="car" route="left" depart="144" departSpeed="5"/>
    <vehicle id="right_75" type="car" route="right" depart="146" departSpeed="5"/>
    <vehicle id="right_76" type="car" route="right" depart="147" departSpeed="5"/>
    <vehicle id="left_77" type="car" route="left" depart="148" departSpeed="5"/>
    <vehicle id="down_78" type="car" route="down" depart="149" departSpeed="5"/>
    <vehicle id="up_79" type="car" route="up" depart="151" departSpeed="5"/>
    <vehicle id="down_80" type="car" route="down" depart="154" departSpeed="5"/>
    <vehicle id="right_81" type="car" route="right" depart="155" departSpeed="5"/>
    <vehicle id="up_82" type="car" route="up" depart="157" departSpeed="5"/>
    <vehicle id="right_83" type="car" route="right" depart="161" departSpeed="5"/>
    <vehicle id="down_84" type="car" route="down" depart="161" departSpeed="5"/>
    <vehicle id="right_85" type="car" route="right" depart="164" departSpeed="5"/>
    <vehicle id="left_86" type="car" route="left" depart="175" departSpeed="5"/>
    <vehicle id="left_87" type="car" route="left" depart="176" departSpeed="5"/>
    <vehicle id="right_88" type="car" route="right" depart="180" departSpeed="5"/>
    <vehicle id="right_89" type="car" route="right" depart="181" departSpeed="5"/>
    <vehicle id="right_90" type="car" route="right" depart="182" departSpeed="5"/>
    <vehicle id="down_91" type="car" route="down" depart="185" departSpeed="5"/>
    <vehicle id="left_92" type="car" route="left" depart="187" departSpeed="5"/>
    <vehicle id="down_93" type="car" route="down" depart="188" departSpeed="5"/>
    <vehicle id="left_94" type="car" route="left" depart="189" departSpeed="5"/>
    <vehicle id="down_95" type="car" route="down" depart="191" departSpeed="5"/>
    <vehicle id="right_96" type="car" route="right" depart="195" departSpeed="5"/>
    <vehicle id="down_97" type="car" route="down" depart="195" departSpeed="5"/>
    <vehicle id="up_98" type="car" route="up" depart="196" departSpeed="5"/>
    <vehicle id="down_99" type="car" route="down" depart="198" departSpeed="5"/>
    <vehicle id="up_100" type="car" route="up" depart="198" departSpeed="5"/>
    <vehicle id="left_101" type="car" route="left" depart="199" departSpeed="5"/>
    <vehicle id="up_102" type="car" route="up" depart="199" departSpeed="5"/>
    <vehicle id="left_103" type="car" route="left" depart="202" departSpeed="5"/>
    <vehicle id="down_104" type="car" route="down" depart="212" departSpeed="5"/>
    <vehicle id="left_105" type="car" route="left" depart="213" departSpeed="5"/>
    <vehicle id="right_106" type="car" route="right" depart="214" departSpeed="5"/>
    <vehicle id="down_107" type="car" route="down" depart="214" departSpeed="5"/>
    <vehicle id="right_108" type="car" route="right" depart="215" departSpeed="5"/>
    <vehicle id="left_109" type="car" route="left" depart="217" departSpeed="5"/>
    <vehicle id="down_110" type="car" route="down" depart="224" departSpeed="5"/>
    <vehicle id="right_111" type="car" route="right" depart="227" departSpeed="5"/>
    <vehicle id="right_112" type="car" route="right" depart="228" departSpeed="5"/>
    <vehicle id="left_113" type="car" route="left" depart="228" departSpeed="5"/>
    <vehicle id="down_114" type="car" route="down" depart="228" departSpeed="5"/>
    <vehicle id="right_115" type="car" route="right" depart="232" departSpeed="5"/>
    <vehicle id="down_116" type="car" route="down" depart="232" departSpeed="5"/>
    <vehicle id="right_117" type="car" route="right" depart="234" departSpeed="5"/>
    <vehicle id="right_118" type="car" route="right" depart="237" departSpeed="5"/>
    <vehicle id="right_119" type="car" route="right" depart="242" departSpeed="5"/>
    <vehicle id="down_120" type="car" route="down" depart="246" departSpeed="5"/>
    <vehicle id="down_121" type="car" route="down" depart="247" departSpeed="5"/>
    <vehicle id="up_122" type="car" route="up" depart="251" departSpeed="5"/>
    <vehicle id="right_123" type="car" route="right" depart="252" departSpeed="5"/>
    <vehicle id="left_124" type="car" route="left" depart="252" departSpeed="5"/>
    <vehicle id="left_125" type="car" route="left" depart="254" departSpeed="5"/>
    <vehicle id="up_126" type="car" route="up" depart="256" departSpeed="5"/>
    <vehicle id="left_127" type="car" route="left" depart="259" departSpeed="5"/>
    <vehicle id="left_128" type="car" route="left" depart="261" departSpeed="5"/>
    <vehicle id="down_129" type="car" route="down" depart="262" departSpeed="5"/>
    <vehicle id="down_130" type="car" route="down" depart="264" departSpeed="5"/>
    <vehicle id="left_131" type="car" route="left" depart="266" departSpeed="5"/>
    <vehicle id="right_132" type="car" route="right" depart="267" departSpeed="5"/>
    <vehicle id="up_133" type="car" route="up" depart="270" departSpeed="5"/>
    <vehicle id="down_134" type="car" route="down" depart="273" departSpeed="5"/>
    <vehicle id="down_135" type="car" route="down" depart="274" departSpeed="5"/>
    <vehicle id="right_136" type="car" route="right" depart="279" departSpeed="5"/>
    <vehicle id="left_137" type="car" route="left" depart="281" departSpeed="5"/>
    <vehicle id="down_138" type="car" route="down" depart="282" departSpeed="5"/>
    <vehicle id="up_139" type="car" route="up" depart="282" departSpeed="5"/>
    <vehicle id="up_140" type="car" route="up" depart="284" departSpeed="5"/>
    <vehicle id="up_141" type="car" route="up" depart="285" departSpeed="5"/>
    <vehicle id="left_142" type="car" route="left" depart="290" departSpeed="5"/>
    <vehicle id="down_143" type="car" route="down" depart="291" departSpeed="5"/>
    <vehicle id="right_144" type="car" route="right" depart="294" departSpeed="5"/>
    <vehicle id="down_145" type="car" route="down" depart="296" departSpeed="5"/>
    <vehicle id="down_146" type="car" route="down" depart="297" departSpeed="5"/>
    <vehicle id="up_147" type="car" route="up" depart="297" departSpeed="5"/>
    <vehicle id="right_148" type="car" route="right" depart="300" departSpeed="5"/>
    <vehicle id="left_149" type="car" route="left" depart="300" departSpeed="5"/>
    <vehicle id="right_150" type="car" route="right" depart="301" departSpeed="5"/>
    <vehicle id="up_151" type="car" route="up" depart="304" departSpeed="5"/>
    <vehicle id="down_152" type="car" route="down" depart="306" departSpeed="5"/>
    <vehicle id="up_153" type="car" route="up" depart="307" departSpeed="5"/>
    <vehicle id="left_154" type="car" route="left" depart="308" departSpeed="5"/>
    <vehicle id="right_155" type="car" route="right" depart="314" departSpeed="5"/>
    <vehicle id="up_156" type="car" route="up" depart="316" departSpeed="5"/>
    <vehicle id="right_157" type="car" route="right" depart="317" departSpeed="5"/>
    <vehicle id="left_158" type="car" route="left" depart="320" departSpeed="5"/>
    <vehicle id="left_159" type="car" route="left" depart="324" departSpeed="5"/>
    <vehicle id="down_160" type="car" route="down" depart="325" departSpeed="5"/>
    <vehicle id="left_161" type="car" route="left" depart="328" departSpeed="5"/>
    <vehicle id="down_162" type="car" route="down" depart="329" departSpeed="5"/>
    <vehicle id="right_163" type="car" route="right" depart="332" departSpeed="5"/>
    <vehicle id="down_164" type="car" route="down" depart="333" departSpeed="5"/>
    <vehicle id="up_165" type="car" route="up" depart="338" departSpeed="5"/>
    <vehicle id="left_166" type="car" route="left" depart="339" departSpeed="5"/>
    <vehicle id="up_167" type="car" route="up" depart="340" departSpeed="5"/>
    <vehicle id="left_168" type="car" route="left" depart="343" departSpeed="5"/>
    <vehicle id="up_169" type="car" route="up" depart="348" departSpeed="5"/>
    <vehicle id="up_170" type="car" route="up" depart="349" departSpeed="5"/>
    <vehicle id="down_171" type="car" route="down" depart="353" departSpeed="5"/>
    <vehicle id="right_172" type="car" route="right" depart="354" departSpeed="5"/>
    <vehicle id="down_173" type="car" route="down" depart="354" departSpeed="5"/>
    <vehicle id="up_174" type="car" route="up" depart="363" departSpeed="5"/>
    <vehicle id="right_175" type="car" route="right" depart="368" departSpeed="5"/>
    <vehicle id="down_176" type="car" route="down" depart="369" departSpeed="5"/>
    <vehicle id="up_177" type="car" route="up" depart="372" departSpeed="5"/>
    <vehicle id="left_178" type="car" route="left" depart="373" departSpeed="5"/>
    <vehicle id="right_179" type="car" route="right" depart="376" departSpeed="5"/>
    <vehicle id="down_180" type="car" route="down" depart="376" departSpeed="5"/>
    <vehicle id="up_181" type="car" route="up" depart="377" departSpeed="5"/>
    <vehicle id="left_182" type="car" route="left" depart="379" departSpeed="5"/>
    <vehicle id="down_183" type="car" route="down" depart="380" departSpeed="5"/>
    <vehicle id="up_184" type="car" route="up" depart="385" departSpeed="5"/>
    <vehicle id="up_185" type="car" route="up" depart="387" departSpeed="5"/>
    <vehicle id="left_186" type="car" route="left" depart="393" departSpeed="5"/>
    <vehicle id="up_187" type="car" route="up" depart="395" departSpeed="5"/>
    <vehicle id="left_188" type="car" route="left" depart="397" departSpeed="5"/>
    <vehicle id="left_189" type="car" route="left" depart="398" departSpeed="5"/>
    <vehicle id="up_190" type="car" route="up" depart="400" departSpeed="5"/>
    <vehicle id="right_191" type="car" route="right" depart="401" departSpeed="5"/>
    <vehicle id="down_192" type="car" route="down" depart="402" departSpeed="5"/>
    <vehicle id="up_193" type="car" route="up" depart="403" departSpeed="5"/>
    <vehicle id="right_194" type="car" route="right" depart="404" departSpeed="5"/>
    <vehicle id="up_195" type="car" route="up" depart="409" departSpeed="5"/>
    <vehicle id="left_196" type="car" route="left" depart="412" departSpeed="5"/>
    <vehicle id="up_197" type="car" route="up" depart="415" departSpeed="5"/>
    <vehicle id="up_198" type="car" route="up" depart="417" departSpeed="5"/>
    <vehicle id="up_199" type="car" route="up" depart="420" departSpeed="5"/>
    <vehicle id="up_200" type="car" route="up" depart="423" departSpeed="5"/>
    <vehicle id="right_201" type="car" route="right" depart="425" departSpeed="5"/>
    <vehicle id="right_202" type="car" route="right" depart="426" departSpeed="5"/>
    <vehicle id="right_203" type="car" route="right" depart="433" departSpeed="5"/>
    <vehicle id="down_204" type="car" route="down" depart="434" departSpeed="5"/>
    <vehicle id="right_205" type="car" route="right" depart="439" departSpeed="5"/>
    <vehicle id="right_206" type="car" route="right" depart="442" departSpeed="5"/>
    <vehicle id="right_207" type="car" route="right" depart="444" departSpeed="5"/>
    <vehicle id="left_208" type="car" route="left" depart="444" departSpeed="5"/>
    <vehicle id="right_209" type="car" route="right" depart="445" departSpeed="5"/>
    <vehicle id="right_210" type="car" route="right" depart="448" departSpeed="5"/>
    <vehicle id="down_211" type="car" route="down" depart="448" departSpeed="5"/>
    <vehicle id="down_212" type="car" route="down" depart="450" departSpeed="5"/>
    <vehicle id="left_213" type="car" route="left" depart="451" departSpeed="5"/>
    <vehicle id="down_214" type="car" route="down" depart="461" departSpeed="5"/>
    <vehicle id="up_215" type="car" route="up" depart="462" departSpeed="5"/>
    <vehicle id="up_216" type="car" route="up" depart="463" departSpeed="5"/>
    <vehicle id="down_217" type="car" route="down" depart="466" departSpeed="5"/>
    <vehicle id="up_218" type="car" route="up" depart="466" departSpeed="5"/>
    <vehicle id="down_219" type="car" route="down" depart="470" departSpeed="5"/>
    <vehicle id="up_220" type="car" route="up" depart="470" departSpeed="5"/>
    <vehicle id="right_221" type="car" route="right" depart="471" departSpeed="5"/>
    <vehicle id="down_222" type="car" route="down" depart="474" departSpeed="5"/>
    <vehicle id="up_223" type="car" route="up" depart="480" departSpeed="5"/>
    <vehicle id="up_224" type="car" route="up" depart="481" departSpeed="5"/>
    <vehicle id="left_225" type="car" route="left" depart="487" departSpeed="5"/>
    <vehicle id="right_226" type="car" route="right" depart="488" departSpeed="5"/>
    <vehicle id="down_227" type="car" route="down" depart="490" departSpeed="5"/>
    <vehicle id="up_228" type="car" route="up" depart="490" departSpeed="5"/>
    <vehicle id="up_229" type="car" route="up" depart="492" departSpeed="5"/>
    <vehicle id="left_230" type="car" route="left" depart="494" departSpeed="5"/>
    <vehicle id="up_231" type="car" route="up" depart="498" departSpeed="5"/>
    <vehicle id="up_232" type="car" route="up" depart="500" departSpeed="5"/>
    <vehicle id="left_233" type="car" route="left" depart="503" departSpeed="5"/>
    <vehicle id="up_234" type="car" route="up" depart="505" departSpeed="5"/>
    <vehicle id="up_235" type="car" route="up" depart="510" departSpeed="5"/>
    <vehicle id="left_236" type="car" route="left" depart="512" departSpeed="5"/>
    <vehicle id="up_237" type="car" route="up" depart="512" departSpeed="5"/>
    <vehicle id="down_238" type="car" route="down" depart="515" departSpeed="5"/>
    <vehicle id="down_239" type="car" route="down" depart="520" departSpeed="5"/>
    <vehicle id="left_240" type="car" route="left" depart="523" departSpeed="5"/>
    <vehicle id="down_241" type="car" route="down" depart="523" departSpeed="5"/>
    <vehicle id="up_242" type="car" route="up" depart="526" departSpeed="5"/>
    <vehicle id="down_243" type="car" route="down" depart="529" departSpeed="5"/>
    <vehicle id="up_244" type="car" route="up" depart="529" departSpeed="5"/>
    <vehicle id="right_245" type="car" route="right" depart="530" departSpeed="5"/>
    <vehicle id="down_246" type="car" route="down" depart="532" departSpeed="5"/>
    <vehicle id="down_247" type="car" route="down" depart="533" departSpeed="5"/>
    <vehicle id="up_248" type="car" route="up" depart="535" departSpeed="5"/>
    <vehicle id="left_249" type="car" route="left" depart="538" departSpeed="5"/>
    <vehicle id="down_250" type="car" route="down" depart="541" departSpeed="5"/>
    <vehicle id="down_251" type="car" route="down" depart="543" departSpeed="5"/>
    <vehicle id="right_252" type="car" route="right" depart="544" departSpeed="5"/>
    <vehicle id="left_253" type="car" route="left" depart="544" departSpeed="5"/>
    <vehicle id="up_254" type="car" route="up" depart="547" departSpeed="5"/>
    <vehicle id="up_255" type="car" route="up" depart="549" departSpeed="5"/>
    <vehicle id="down_256" type="car" route="down" depart="554" departSpeed="5"/>
    <vehicle id="right_257" type="car" route="right" depart="558" departSpeed="5"/>
    <vehicle id="left_258" type="car" route="left" depart="563" departSpeed="5"/>
    <vehicle id="left_259" type="car" route="left" depart="564" departSpeed="5"/>
    <vehicle id="down_260" type="car" route="down" depart="571" departSpeed="5"/>
    <vehicle id="down_261" type="car" route="down" depart="573" departSpeed="5"/>
    <vehicle id="left_262" type="car" route="left" depart="577" departSpeed="5"/>
    <vehicle id="right_263" type="car" route="right" depart="579" departSpeed="5"/>
    <vehicle id="left_264" type="car" route="left" depart="580" departSpeed="5"/>
    <vehicle id="right_265" type="car" route="right" depart="584" departSpeed="5"/>
    <vehicle id="down_266" type="car" route="down" depart="589" departSpeed="5"/>
    <vehicle id="up_267" type="car" route="up" depart="590" departSpeed="5"/>
    <vehicle id="up_268" type="car" route="up" depart="592" departSpeed="5"/>
    <vehicle id="left_269" type="car" route="left" depart="593" departSpeed="5"/>
    <vehicle id="down_270" type="car" route="down" depart="595" departSpeed="5"/>
    <vehicle id="right_271" type="car" route="right" depart="608" departSpeed="5"/>
    <vehicle id="left_272" type="car" route="left" depart="610" departSpeed="5"/>
    <vehicle id="up_273" type="car" route="up" depart="610" departSpeed="5"/>
    <vehicle id="left_274" type="car" route="left" depart="612" departSpeed="5"/>
    <vehicle id="right_275" type="car" route="right" depart="613" departSpeed="5"/>
    <vehicle id="down_276" type="car" route="down" depart="616" departSpeed="5"/>
    <vehicle id="right_277" type="car" route="right" depart="618" departSpeed="5"/>
    <vehicle id="down_278" type="car" route="down" depart="619" departSpeed="5"/>
    <vehicle id="left_279" type="car" route="left" depart="620" departSpeed="5"/>
    <vehicle id="right_280" type="car" route="right" depart="623" departSpeed="5"/>
    <vehicle id="down_281" type="car" route="down" depart="623" departSpeed="5"/>
    <vehicle id="up_282" type="car" route="up" depart="629" departSpeed="5"/>
    <vehicle id="up_283" type="car" route="up" depart="631" departSpeed="5"/>
    <vehicle id="up_284" type="car" route="up" depart="634" departSpeed="5"/>
    <vehicle id="left_285" type="car" route="left" depart="638" departSpeed="5"/>
    <vehicle id="right_286" type="car" route="right" depart="646" departSpeed="5"/>
    <vehicle id="down_287" type="car" route="down" depart="647" departSpeed="5"/>
    <vehicle id="right_288" type="car" route="right" depart="648" departSpeed="5"/>
    <vehicle id="down_289" type="car" route="down" depart="649" departSpeed="5"/>
    <vehicle id="left_290" type="car" route="left" depart="650" departSpeed="5"/>
    <vehicle id="up_291" type="car" route="up" depart="650" departSpeed="5"/>
    <vehicle id="down_292" type="car" route="down" depart="654" departSpeed="5"/>
    <vehicle id="right_293" type="car" route="right" depart="656" departSpeed="5"/>
    <vehicle id="right_294" type="car" route="right" depart="663" departSpeed="5"/>
    <vehicle id="right_295" type="car" route="right" depart="664" departSpeed="5"/>
    <vehicle id="left_296" type="car" route="left" depart="666" departSpeed="5"/>
    <vehicle id="left_297" type="car" route="left" depart="667" departSpeed="5"/>
    <vehicle id="down_298" type="car" route="down" depart="676" departSpeed="5"/>
    <vehicle id="up_299" type="car" route="up" depart="676" departSpeed="5"/>
    <vehicle id="up_300" type="car" route="up" depart="680" departSpeed="5"/>
    <vehicle id="left_301" type="car" route="left" depart="682" departSpeed="5"/>
    <vehicle id="right_302" type="car" route="right" depart="683" departSpeed="5"/>
    <vehicle id="up_303" type="car" route="up" depart="685" departSpeed="5"/>
    <vehicle id="right_304" type="car" route="right" depart="689" departSpeed="5"/>
    <vehicle id="down_305" type="car" route="down" depart="696" departSpeed="5"/>
    <vehicle id="left_306" type="car" route="left" depart="703" departSpeed="5"/>
    <vehicle id="down_307" type="car" route="down" depart="704" departSpeed="5"/>
    <vehicle id="left_308" type="car" route="left" depart="712" departSpeed="5"/>
    <vehicle id="right_309" type="car" route="right" depart="714" departSpeed="5"/>
    <vehicle id="down_310" type="car" route="down" depart="716" departSpeed="5"/>
    <vehicle id="left_311" type="car" route="left" depart="720" departSpeed="5"/>
    <vehicle id="right_312" type="car" route="right" depart="721" departSpeed="5"/>
    <vehicle id="down_313" type="car" route="down" depart="727" departSpeed="5"/>
    <vehicle id="right_314" type="car" route="right" depart="728" departSpeed="5"/>
    <vehicle id="down_315" type="car" route="down" depart="728" departSpeed="5"/>
    <vehicle id="down_316" type="car" route="down" depart="734" departSpeed="5"/>
    <vehicle id="right_317" type="car" route="right" depart="737" departSpeed="5"/>
    <vehicle id="left_318" type="car" route="left" depart="737" departSpeed="5"/>
    <vehicle id="up_319" type="car" route="up" depart="739" departSpeed="5"/>
    <vehicle id="down_320" type="car" route="down" depart="744" departSpeed="5"/>
    <vehicle id="up_321" type="car" route="up" depart="744" departSpeed="5"/>
    <vehicle id="right_322" type="car" route="right" depart="751" departSpeed="5"/>
    <vehicle id="right_323" type="car" route="right" depart="753" departSpeed="5"/>
    <vehicle id="left_324" type="car" route="left" depart="754" departSpeed="5"/>
    <vehicle id="up_325" type="car" route="up" depart="754" departSpeed="5"/>
    <vehicle id="up_326" type="car" route="up" depart="757" departSpeed="5"/>
    <vehicle id="down_327" type="car" route="down" depart="759" departSpeed="5"/>
    <vehicle id="left_328" type="car" route="left" depart="764" departSpeed="5"/>
    <vehicle id="up_329" type="car" route="up" depart="764" departSpeed="5"/>
    <vehicle id="left_330" type="car" route="left" depart="765" departSpeed="5"/>
    <vehicle id="down_331" type="car" route="down" depart="766" departSpeed="5"/>
    <vehicle id="left_332" type="car" route="left" depart="769" departSpeed="5"/>
    <vehicle id="left_333" type="car" route="left" depart="770" departSpeed="5"/>
    <vehicle id="right_334" type="car" route="right" depart="772" departSpeed="5"/>
    <vehicle id="right_335" type="car" route="right" depart="776" departSpeed="5"/>
    <vehicle id="up_336" type="car" route="up" depart="776" departSpeed="5"/>
    <vehicle id="right_337" type="car" route="right" depart="777" departSpeed="5"/>
    <vehicle id="right_338" type="car" route="right" depart="784" departSpeed="5"/>
    <vehicle id="up_339" type="car" route="up" depart="786" departSpeed="5"/>
    <vehicle id="down_340" type="car" route="down" depart="787" departSpeed="5"/>
    <vehicle id="up_341" type="car" route="up" depart="787" departSpeed="5"/>
    <vehicle id="left_342" type="car" route="left" depart="789" departSpeed="5"/>
    <vehicle id="right_343" type="car" route="right" depart="790" departSpeed="5"/>
    <vehicle id="up_344" type="car" route="up" depart="792" departSpeed="5"/>
    <vehicle id="right_345" type="car" route="right" depart="800" departSpeed="5"/>
    <vehicle id="down_346" type="car" route="down" depart="801" departSpeed="5"/>
    <vehicle id="down_347" type="car" route="down" depart="803" departSpeed="5"/>
    <vehicle id="right_348" type="car" route="right" depart="805" departSpeed="5"/>
    <vehicle id="right_349" type="car" route="right" depart="809" departSpeed="5"/>
    <vehicle id="down_350" type="car" route="down" depart="813" departSpeed="5"/>
    <vehicle id="down_351" type="car" route="down" depart="815" departSpeed="5"/>
    <vehicle id="down_352" type="car" route="down" depart="818" departSpeed="5"/>
    <vehicle id="right_353" type="car" route="right" depart="819" departSpeed="5"/>
    <vehicle id="down_354" type="car" route="down" depart="821" departSpeed="5"/>
    <vehicle id="up_355" type="car" route="up" depart="822" departSpeed="5"/>
    <vehicle id="left_356" type="car" route="left" depart="827" departSpeed="5"/>
    <vehicle id="left_357" type="car" route="left" depart="828" departSpeed="5"/>
    <vehicle id="right_358" type="car" route="right" depart="830" departSpeed="5"/>
    <vehicle id="down_359" type="car" route="down" depart="832" departSpeed="5"/>
    <vehicle id="left_360" type="car" route="left" depart="836" departSpeed="5"/>
    <vehicle id="left_361" type="car" route="left" depart="843" departSpeed="5"/>
    <vehicle id="left_362" type="car" route="left" depart="844" departSpeed="5"/>
    <vehicle id="left_363" type="car" route="left" depart="845" departSpeed="5"/>
    <vehicle id="left_364" type="car" route="left" depart="848" departSpeed="5"/>
    <vehicle id="down_365" type="car" route="down" depart="855" departSpeed="5"/>