<routes>
                               <vType id="car" accel="2.0" decel="8.5" sigma="0.7" length="5" minGap="3" maxSpeed="30" guiShape="passenger"/>

                               <route id="WETop" edges="5i 1i 2o" />
                               <route id="EWTop" edges="2i 1o 5o" />
                               <route id="NS" edges="4i 3o 8i" />
                               <route id="SN" edges="8o 3i 4o" />
                               <route id="WEBottom" edges="7o 11o" />
                               <route id="EWBottom" edges="11i 7i" />

                               <route id="t2" edges="8o 7i" />
                               <route id="t3" edges="4i 1o 6i" />
                               <route id="t4" edges="7o 3i 2o" />
                               <route id="t5" edges="6o 1i 4o" />
                               <route id="t6" edges="5i 1i 3o 11o" />
                               
    <vehicle id="WEBottom_0" type="car" route="WEBottom" depart="1" departSpeed="15"/>
    <vehicle id="t3_1" type="car" route="t3" depart="1" departSpeed="15"/>
    <vehicle id="t4_2" type="car" route="t4" depart="1" departSpeed="15"/>
    <vehicle id="t5_3" type="car" route="t5" depart="2" departSpeed="15"/>
    <vehicle id="t2_4" type="car" route="t2" depart="3" departSpeed="15"/>
    <vehicle id="t3_5" type="car" route="t3" depart="5" departSpeed="15"/>
    <vehicle id="NS_6" type="car" route="NS" depart="6" departSpeed="15"/>
    <vehicle id="t3_7" type="car" route="t3" depart="6" departSpeed="15"/>
    <vehicle id="t5_8" type="car" route="t5" depart="6" departSpeed="15"/>
    <vehicle id="t3_9" type="car" route="t3" depart="7" departSpeed="15"/>
    <vehicle id="t4_10" type="car" route="t4" depart="7" departSpeed="15"/>
    <vehicle id="EWBottom_11" type="car" route="EWBottom" depart="8" departSpeed="15"/>
    <vehicle id="NS_12" type="car" route="NS" depart="10" departSpeed="15"/>
    <vehicle id="WEBottom_13" type="car" route="WEBottom" depart="11" departSpeed="15"/>
    <vehicle id="t4_14" type="car" route="t4" depart="12" departSpeed="15"/>
    <vehicle id="t5_15" type="car" route="t5" depart="12" departSpeed="15"/>
    <vehicle id="SN_16" type="car" route="SN" depart="13" departSpeed="15"/>
    <vehicle id="WETop_17" type="car" route="WETop" depart="21" departSpeed="15"/>
    <vehicle id="WEBottom_18" type="car" route="WEBottom" depart="23" departSpeed="15"/>
    <vehicle id="t4_19" type="car" route="t4" depart="23" departSpeed="15"/>
    <vehicle id="WEBottom_20" type="car" route="WEBottom" depart="34" departSpeed="15"/>
    <vehicle id="t3_21" type="car" route="t3" depart="36" departSpeed="15"/>
    <vehicle id="EWTop_22" type="car" route="EWTop" depart="37" departSpeed="15"/>
    <vehicle id="SN_23" type="car" route="SN" depart="37" departSpeed="15"/>
    <vehicle id="t2_24" type="car" route="t2" depart="37" departSpeed="15"/>
    <vehicle id="t5_25" type="car" route="t5" depart="37" departSpeed="15"/>
    <vehicle id="NS_26" type="car" route="NS" depart="40" departSpeed="15"/>
    <vehicle id="t3_27" type="car" route="t3" depart="41" departSpeed="15"/>
    <vehicle id="t3_28" type="car" route="t3" depart="43" departSpeed="15"/>
    <vehicle id="t2_29" type="car" route="t2" depart="44" departSpeed="15"/>
    <vehicle id="t2_30" type="car" route="t2" depart="48" departSpeed="15"/>
    <vehicle id="WETop_31" type="car" route="WETop" depart="55" departSpeed="15"/>
    <vehicle id="EWTop_32" type="car" route="EWTop" depart="56" departSpeed="15"/>
    <vehicle id="t3_33" type="car" route="t3" depart="57" departSpeed="15"/>
    <vehicle id="t4_34" type="car" route="t4" depart="57" departSpeed="15"/>
    <vehicle id="SN_35" type="car" route="SN" depart="59" departSpeed="15"/>
    <vehicle id="t5_36" type="car" route="t5" depart="59" departSpeed="15"/>
    <vehicle id="NS_37" type="car" route="NS" depart="62" departSpeed="15"/>
    <vehicle id="t2_38" type="car" route="t2" depart="62" departSpeed="15"/>
    <vehicle id="EWTop_39" type="car" route="EWTop" depart="65" departSpeed="15"/>
    <vehicle id="EWBottom_40" type="car" route="EWBottom" depart="65" departSpeed="15"/>
    <vehicle id="NS_41" type="car" route="NS" depart="65" departSpeed="15"/>
    <vehicle id="EWTop_42" type="car" route="EWTop" depart="66" departSpeed="15"/>
    <vehicle id="WEBottom_43" type="car" route="WEBottom" depart="66" departSpeed="15"/>
    <vehicle id="WETop_44" type="car" route="WETop" depart="68" departSpeed="15"/>
    <vehicle id="WEBottom_45" type="car" route="WEBottom" depart="68" departSpeed="15"/>
    <vehicle id="WETop_46" type="car" route="WETop" depart="69" departSpeed="15"/>
    <vehicle id="t4_47" type="car" route="t4" depart="69" departSpeed="15"/>
    <vehicle id="WETop_48" type="car" route="WETop" depart="70" departSpeed="15"/>
    <vehicle id="EWBottom_49" type="car" route="EWBottom" depart="70" departSpeed="15"/>
    <vehicle id="t5_50" type="car" route="t5" depart="73" departSpeed="15"/>
    <vehicle id="WETop_51" type="car" route="WETop" depart="75" departSpeed="15"/>
    <vehicle id="WETop_52" type="car" route="WETop" depart="83" departSpeed="15"/>
    <vehicle id="WEBottom_53" type="car" route="WEBottom" depart="85" departSpeed="15"/>
    <vehicle id="NS_54" type="car" route="NS" depart="85" departSpeed="15"/>
    <vehicle id="t6_55" type="car" route="t6" depart="89" departSpeed="15"/>
    <vehicle id="WETop_56" type="car" route="WETop" depart="92" departSpeed="15"/>
    <vehicle id="SN_57" type="car" route="SN" depart="95" departSpeed="15"/>
    <vehicle id="t3_58" type="car" route="t3" depart="95" departSpeed="15"/>
    <vehicle id="t6_59" type="car" route="t6" depart="95" departSpeed="15"/>
    <vehicle id="t3_60" type="car" route="t3" depart="97" departSpeed="15"/>
    <vehicle id="NS_61" type="car" route="NS" depart="100" departSpeed="15"/>
    <vehicle id="t6_62" type="car" route="t6" depart="100" departSpeed="15"/>
    <vehicle id="WETop_63" type="car" route="WETop" depart="103" departSpeed="15"/>
    <vehicle id="t5_64" type="car" route="t5" depart="104" departSpeed="15"/>
    <vehicle id="t2_65" type="car" route="t2" depart="105" departSpeed="15"/>
    <vehicle id="SN_66" type="car" route="SN" depart="106" departSpeed="15"/>
    <vehicle id="t2_67" type="car" route="t2" depart="106" departSpeed="15"/>
    <vehicle id="WEBottom_68" type="car" route="WEBottom" depart="108" departSpeed="15"/>
    <vehicle id="t3_69" type="car" route="t3" depart="109" departSpeed="15"/>
    <vehicle id="t4_70" type="car" route="t4" depart="109" departSpeed="15"/>
    <vehicle id="NS_71" type="car" route="NS" depart="112" departSpeed="15"/>
    <vehicle id="t5_72" type="car" route="t5" depart="117" departSpeed="15"/>
    <vehicle id="EWTop_73" type="car" route="EWTop" depart="118" departSpeed="15"/>
    <vehicle id="SN_74" type="car" route="SN" depart="118" departSpeed="15"/>
    <vehicle id="t2_75" type="car" route="t2" depart="118" departSpeed="15"/>
    <vehicle id="WEBottom_76" type="car" route="WEBottom" depart="119" departSpeed="15"/>
    <vehicle id="t4_77" type="car" route="t4" depart="121" departSpeed="15"/>
    <vehicle id="t4_78" type="car" route="t4" depart="124" departSpeed="15"/>
    <vehicle id="t6_79" type="car" route="t6" depart="124" departSpeed="15"/>
    <vehicle id="t3_80" type="car" route="t3" depart="125" departSpeed="15"/>
    <vehicle id="NS_81" type="car" route="NS" depart="128" departSpeed="15"/>
    <vehicle id="t6_82" type="car" route="t6" depart="128" departSpeed="15"/>
    <vehicle id="t2_83" type="car" route="t2" depart="130" departSpeed="15"/>
    <vehicle id="t5_84" type="car" route="t5" depart="133" departSpeed="15"/>
    <vehicle id="EWTop_85" type="car" route="EWTop" depart="136" departSpeed="15"/>
    <vehicle id="t5_86" type="car" route="t5" depart="137" departSpeed="15"/>
    <vehicle id="t4_87" type="car" route="t4" depart="141" departSpeed="15"/>
    <vehicle id="t6_88" type="car" route="t6" depart="142" departSpeed="15"/>
    <vehicle id="WETop_89" type="car" route="WETop" depart="146" departSpeed="15"/>
    <vehicle id="t4_90" type="car" route="t4" depart="146" departSpeed="15"/>
    <vehicle id="WETop_91" type="car" route="WETop" depart="149" departSpeed="15"/>
    <vehicle id="EWTop_92" type="car" route="EWTop" depart="149" departSpeed="15"/>
    <vehicle id="EWBottom_93" type="car" route="EWBottom" depart="153" departSpeed="15"/>
    <vehicle id="t5_94" type="car" route="t5" depart="155" departSpeed="15"/>
    <vehicle id="EWTop_95" type="car" route="EWTop" depart="158" departSpeed="15"/>
    <vehicle id="t5_96" type="car" route="t5" depart="160" departSpeed="15"/>
    <vehicle id="WETop_97" type="car" route="WETop" depart="161" departSpeed="15"/>
    <vehicle id="t6_98" type="car" route="t6" depart="163" departSpeed="15"/>
    <vehicle id="t6_99" type="car" route="t6" depart="164" departSpeed="15"/>
    <vehicle id="WEBottom_100" type="car" route="WEBottom" depart="165" departSpeed="15"/>
    <vehicle id="t4_101" type="car" route="t4" depart="165" departSpeed="15"/>
    <vehicle id="EWTop_102" type="car" route="EWTop" depart="167" departSpeed="15"/>
    <vehicle id="t2_103" type="car" route="t2" depart="173" departSpeed="15"/>
    <vehicle id="t3_104" type="car" route="t3" depart="174" departSpeed="15"/>
    <vehicle id="t5_105" type="car" route="t5" depart="174" departSpeed="15"/>
    <vehicle id="t2_106" type="car" route="t2" depart="176" departSpeed="15"/>
    <vehicle id="t5_107" type="car" route="t5" depart="176" departSpeed="15"/>
    <vehicle id="t2_108" type="car" route="t2" depart="177" departSpeed="15"/>
    <vehicle id="t4_109" type="car" route="t4" depart="177" departSpeed="15"/>
    <vehicle id="SN_110" type="car" route="SN" depart="178" departSpeed="15"/>
    <vehicle id="t3_111" type="car" route="t3" depart="178" departSpeed="15"/>
    <vehicle id="EWTop_112" type="car" route="EWTop" depart="182" departSpeed="15"/>
    <vehicle id="t2_113" type="car" route="t2" depart="183" departSpeed="15"/>
    <vehicle id="t6_114" type="car" route="t6" depart="186" departSpeed="15"/>
    <vehicle id="WETop_115" type="car" route="WETop" depart="188" departSpeed="15"/>
    <vehicle id="t3_116" type="car" route="t3" depart="190" departSpeed="15"/>
    <vehicle id="t6_117" type="car" route="t6" depart="190" departSpeed="15"/>
    <vehicle id="t4_118" type="car" route="t4" depart="191" departSpeed="15"/>
    <vehicle id="t2_119" type="car" route="t2" depart="192" departSpeed="15"/>
    <vehicle id="t5_120" type="car" route="t5" depart="195" departSpeed="15"/>
    <vehicle id="t2_121" type="car" route="t2" depart="205" departSpeed="15"/>
    <vehicle id="t5_122" type="car" route="t5" depart="205" departSpeed="15"/>
    <vehicle id="t6_123" type="car" route="t6" depart="205" departSpeed="15"/>
    <vehicle id="t2_124" type="car" route="t2" depart="208" departSpeed="15"/>
    <vehicle id="WETop_125" type="car" route="WETop" depart="209" departSpeed="15"/>
    <vehicle id="EWBottom_126" type="car" route="EWBottom" depart="210" departSpeed="15"/>
    <vehicle id="WETop_127" type="car" route="WETop" depart="212" departSpeed="15"/>
    <vehicle id="t4_128" type="car" route="t4" depart="213" departSpeed="15"/>
    <vehicle id="SN_129" type="car" route="SN" depart="215" departSpeed="15"/>
    <vehicle id="SN_130" type="car" route="SN" depart="221" departSpeed="15"/>
    <vehicle id="t2_131" type="car" route="t2" depart="223" departSpeed="15"/>
    <vehicle id="EWTop_132" type="car" route="EWTop" depart="225" departSpeed="15"/>
    <vehicle id="WETop_133" type="car" route="WETop" depart="228" departSpeed="15"/>
    <vehicle id="t3_134" type="car" route="t3" depart="229" departSpeed="15"/>
    <vehicle id="t6_135" type="car" route="t6" depart="229" departSpeed="15"/>
    <vehicle id="EWTop_136" type="car" route="EWTop" depart="231" departSpeed="15"/>
    <vehicle id="t5_137" type="car" route="t5" depart="231" departSpeed="15"/>
    <vehicle id="t4_138" type="car" route="t4" depart="234" departSpeed="15"/>
    <vehicle id="EWBottom_139" type="car" route="EWBottom" depart="235" departSpeed="15"/>
    <vehicle id="t6_140" type="car" route="t6" depart="235" departSpeed="15"/>
    <vehicle id="t4_141" type="car" route="t4" depart="237" departSpeed="15"/>
    <vehicle id="EWTop_142" type="car" route="EWTop" depart="239" departSpeed="15"/>
    <vehicle id="t4_143" type="car" route="t4" depart="239" departSpeed="15"/>
    <vehicle id="t4_144" type="car" route="t4" depart="241" departSpeed="15"/>
    <vehicle id="t5_145" type="car" route="t5" depart="242" departSpeed="15"/>
    <vehicle id="t3_146" type="car" route="t3" depart="244" departSpeed="15"/>
    <vehicle id="t6_147" type="car" route="t6" depart="246" departSpeed="15"/>
    <vehicle id="t5_148" type="car" route="t5" depart="248" departSpeed="15"/>
    <vehicle id="WETop_149" type="car" route="WETop" depart="250" departSpeed="15"/>
    <vehicle id="WEBottom_150" type="car" route="WEBottom" depart="251" departSpeed="15"/>
    <vehicle id="NS_151" type="car" route="NS" depart="253" departSpeed="15"/>
    <vehicle id="t2_152" type="car" route="t2" depart="253" departSpeed="15"/>
    <vehicle id="t3_153" type="car" route="t3" depart="254" departSpeed="15"/>
    <vehicle id="t6_154" type="car" route="t6" depart="255" departSpeed="15"/>
    <vehicle id="SN_155" type="car" route="SN" depart="256" departSpeed="15"/>
    <vehicle id="EWBottom_156" type="car" route="EWBottom" depart="261" departSpeed="15"/>
    <vehicle id="SN_157" type="car" route="SN" depart="264" departSpeed="15"/>
    <vehicle id="t5_158" type="car" route="t5" depart="264" departSpeed="15"/>
    <vehicle id="t6_159" type="car" route="t6" depart="264" departSpeed="15"/>
    <vehicle id="WEBottom_160" type="car" route="WEBottom" depart="265" departSpeed="15"/>
    <vehicle id="WETop_161" type="car" route="WETop" depart="267" departSpeed="15"/>
    <vehicle id="t2_162" type="car" route="t2" depart="267" departSpeed="15"/>
    <vehicle id="EWTop_163" type="car" route="EWTop" depart="269" departSpeed="15"/>
    <vehicle id="t6_164" type="car" route="t6" depart="269" departSpeed="15"/>
    <vehicle id="WETop_165" type="car" route="WETop" depart="273" departSpeed="15"/>
    <vehicle id="t4_166" type="car" route="t4" depart="273" departSpeed="15"/>
    <vehicle id="EWBottom_167" type="car" route="EWBottom" depart="275" departSpeed="15"/>
    <vehicle id="t5_168" type="car" route="t5" depart="275" departSpeed="15"/>
    <vehicle id="t3_169" type="car" route="t3" depart="276" departSpeed="15"/>
    <vehicle id="t6_170" type="car" route="t6" depart="278" departSpeed="15"/>
    <vehicle id="t6_171" type="car" route="t6" depart="282" departSpeed="15"/>
    <vehicle id="EWBottom_172" type="car" route="EWBottom" depart="284" departSpeed="15"/>
    <vehicle id="EWBottom_173" type="car" route="EWBottom" depart="290" departSpeed="15"/>
    <vehicle id="WETop_174" type="car" route="WETop" depart="291" departSpeed="15"/>
    <vehicle id="t4_175" type="car" route="t4" depart="291" departSpeed="15"/>
    <vehicle id="t4_176" type="car" route="t4" depart="295" departSpeed="15"/>
    <vehicle id="t4_177" type="car" route="t4" depart="296" departSpeed="15"/>
    <vehicle id="t5_178" type="car" route="t5" depart="296" departSpeed="15"/>
    <vehicle id="SN_179" type="car" route="SN" depart="299" departSpeed="15"/>
    <vehicle id="EWBottom_180" type="car" route="EWBottom" depart="303" departSpeed="15"/>
    <vehicle id="SN_181" type="car" route="SN" depart="303" departSpeed="15"/>
    <vehicle id="EWTop_182" type="car" route="EWTop" depart="304" departSpeed="15"/>
    <vehicle id="t3_183" type="car" route="t3" depart="306" departSpeed="15"/>
    <vehicle id="t5_184" type="car" route="t5" depart="309" departSpeed="15"/>
    <vehicle id="t4_185" type="car" route="t4" depart="311" departSpeed="15"/>
    <vehicle id="SN_186" type="car" route="SN" depart="312" departSpeed="15"/>
    <vehicle id="t3_187" type="car" route="t3" depart="317" departSpeed="15"/>
    <vehicle id="WETop_188" type="car" route="WETop" depart="319" departSpeed="15"/>
    <vehicle id="t4_189" type="car" route="t4" depart="321" departSpeed="15"/>
    <vehicle id="t2_190" type="car" route="t2" depart="324" departSpeed="15"/>
    <vehicle id="t2_191" type="car" route="t2" depart="326" departSpeed="15"/>
    <vehicle id="WEBottom_192" type="car" route="WEBottom" depart="328" departSpeed="15"/>
    <vehicle id="WEBottom_193" type="car" route="WEBottom" depart="330" departSpeed="15"/>
    <vehicle id="t3_194" type="car" route="t3" depart="330" departSpeed="15"/>
    <vehicle id="t5_195" type="car" route="t5" depart="330" departSpeed="15"/>
    <vehicle id="t6_196" type="car" route="t6" depart="331" departSpeed="15"/>
    <vehicle id="EWBottom_197" type="car" route="EWBottom" depart="335" departSpeed="15"/>
    <vehicle id="t2_198" type="car" route="t2" depart="336" departSpeed="15"/>
    <vehicle id="NS_199" type="car" route="NS" depart="338" departSpeed="15"/>
    <vehicle id="t2_200" type="car" route="t2" depart="338" departSpeed="15"/>
    <vehicle id="t6_201" type="car" route="t6" depart="340" departSpeed="15"/>
    <vehicle id="WETop_202" type="car" route="WETop" depart="344" departSpeed="15"/>
    <vehicle id="SN_203" type="car" route="SN" depart="348" departSpeed="15"/>
    <vehicle id="t6_204" type="car" route="t6" depart="350" departSpeed="15"/>
    <vehicle id="t5_205" type="car" route="t5" depart="351" departSpeed="15"/>
    <vehicle id="EWTop_206" type="car" route="EWTop" depart="353" departSpeed="15"/>
    <vehicle id="t3_207" type="car" route="t3" depart="353" departSpeed="15"/>
    <vehicle id="EWTop_208" type="car" route="EWTop" depart="354" departSpeed="15"/>
    <vehicle id="NS_209" type="car" route="NS" depart="357" departSpeed="15"/>
    <vehicle id="t4_210" type="car" route="t4" depart="357" departSpeed="15"/>
    <vehicle id="EWBottom_211" type="car" route="EWBottom" depart="358" departSpeed="15"/>
    <vehicle id="t6_212" type="car" route="t6" depart="362" departSpeed="15"/>
    <vehicle id="SN_213" type="car" route="SN" depart="364" departSpeed="15"/>
    <vehicle id="EWTop_214" type="car" route="EWTop" depart="365" departSpeed="15"/>
    <vehicle id="SN_215" type="car" route="SN" depart="367" departSpeed="15"/>
    <vehicle id="t3_216" type="car" route="t3" depart="368" departSpeed="15"/>
    <vehicle id="EWBottom_217" type="car" route="EWBottom" depart="371" departSpeed="15"/>
    <vehicle id="t3_218" type="car" route="t3" depart="372" departSpeed="15"/>
    <vehicle id="WETop_219" type="car" route="WETop" depart="373" departSpeed="15"/>
    <vehicle id="t5_220" type="car" route="t5" depart="373" departSpeed="15"/>
    <vehicle id="t2_221" type="car" route="t2" depart="374" departSpeed="15"/>
    <vehicle id="t2_222" type="car" route="t2" depart="376" departSpeed="15"/>
    <vehicle id="t6_223" type="car" route="t6" depart="376" departSpeed="15"/>
    <vehicle id="t2_224" type="car" route="t2" depart="378" departSpeed="15"/>
    <vehicle id="t6_225" type="car" route="t6" depart="378" departSpeed="15"/>
    <vehicle id="NS_226" type="car" route="NS" depart="383" departSpeed="15"/>
    <vehicle id="SN_227" type="car" route="SN" depart="387" departSpeed="15"/>
    <vehicle id="t4_228" type="car" route="t4" depart="389" departSpeed="15"/>
    <vehicle id="t6_229" type="car" route="t6" depart="393" departSpeed="15"/>
    <vehicle id="SN_230" type="car" route="SN" depart="394" departSpeed="15"/>
    <vehicle id="WETop_231" type="car" route="WETop" depart="395" departSpeed="15"/>
    <vehicle id="t4_232" type="car" route="t4" depart="396" departSpeed="15"/>
    <vehicle id="t5_233" type="car" route="t5" depart="396" departSpeed="15"/>
    <vehicle id="WETop_234" type="car" route="WETop" depart="398" departSpeed="15"/>
    <vehicle id="WEBottom_235" type="car" route="WEBottom" depart="398" departSpeed="15"/>
    <vehicle id="EWTop_236" type="car" route="EWTop" depart="399" departSpeed="15"/>
    <vehicle id="WEBottom_237" type="car" route="WEBottom" depart="401" departSpeed="15"/>
    <vehicle id="NS_238" type="car" route="NS" depart="403" departSpeed="15"/>
    <vehicle id="WETop_239" type="car" route="WETop" depart="405" departSpeed="15"/>
    <vehicle id="NS_240" type="car" route="NS" depart="406" departSpeed="15"/>
    <vehicle id="WETop_241" type="car" route="WETop" depart="409" departSpeed="15"/>
    <vehicle id="EWBottom_242" type="car" route="EWBottom" depart="410" departSpeed="15"/>
    <vehicle id="WETop_243" type="car" route="WETop" depart="414" departSpeed="15"/>
    <vehicle id="t4_244" type="car" route="t4" depart="417" departSpeed="15"/>
    <vehicle id="NS_245" type="car" route="NS" depart="420" departSpeed="15"/>
    <vehicle id="t3_246" type="car" route="t3" depart="421" departSpeed="15"/>
    <vehicle id="t4_247" type="car" route="t4" depart="422" departSpeed="15"/>
    <vehicle id="NS_248" type="car" route="NS" depart="426" departSpeed="15"/>
    <vehicle id="t3_249" type="car" route="t3" depart="426" departSpeed="15"/>
    <vehicle id="t4_250" type="car" route="t4" depart="427" departSpeed="15"/>
    <vehicle id="t5_251" type="car" route="t5" depart="428" departSpeed="15"/>
    <vehicle id="EWBottom_252" type="car" route="EWBottom" depart="430" departSpeed="15"/>
    <vehicle id="t6_253" type="car" route="t6" depart="430" departSpeed="15"/>
    <vehicle id="t4_254" type="car" route="t4" depart="434" departSpeed="15"/>
    <vehicle id="WEBottom_255" type="car" route="WEBottom" depart="440" departSpeed="15"/>
    <vehicle id="NS_256" type="car" route="NS" depart="441" departSpeed="15"/>
    <vehicle id="t4_257" type="car" route="t4" depart="443" departSpeed="15"/>
    <vehicle id="t5_258" type="car" route="t5" depart="443" departSpeed="15"/>
    <vehicle id="NS_259" type="car" route="NS" depart="445" departSpeed="15"/>
    <vehicle id="t4_260" type="car" route="t4" depart="447" departSpeed="15"/>
    <vehicle id="t4_261" type="car" route="t4" depart="451" departSpeed="15"/>
    <vehicle id="NS_262" type="car" route="NS" depart="453" departSpeed="15"/>
    <vehicle id="WEBottom_263" type="car" route="WEBottom" depart="454" departSpeed="15"/>
    <vehicle id="EWBottom_264" type="car" route="EWBottom" depart="454" departSpeed="15"/>
    <vehicle id="EWBottom_265" type="car" route="EWBottom" depart="456" departSpeed="15"/>
    <vehicle id="WETop_266" type="car" route="WETop" depart="463" departSpeed="15"/>
    <vehicle id="WETop_267" type="car" route="WETop" depart="464" departSpeed="15"/>
    <vehicle id="WEBottom_268" type="car" route="WEBottom" depart="465" departSpeed="15"/>
    <vehicle id="WETop_269" type="car" route="WETop" depart="468" departSpeed="15"/>
    <vehicle id="t5_270" type="car" route="t5" depart="470" departSpeed="15"/>
    <vehicle id="t6_271" type="car" route="t6" depart="474" departSpeed="15"/>
    <vehicle id="t3_272" type="car" route="t3" depart="476" departSpeed="15"/>
    <vehicle id="t4_273" type="car" route="t4" depart="477" departSpeed="15"/>
    <vehicle id="t2_274" type="car" route="t2" depart="479" departSpeed="15"/>
    <vehicle id="t6_275" type="car" route="t6" depart="479" departSpeed="15"/>
    <vehicle id="t4_276" type="car" route="t4" depart="480" departSpeed="15"/>
    <vehicle id="EWTop_277" type="car" route="EWTop" depart="489" departSpeed="15"/>
    <vehicle id="EWTop_278" type="car" route="EWTop" depart="491" departSpeed="15"/>
    <vehicle id="t4_279" type="car" route="t4" depart="491" departSpeed="15"/>
    <vehicle id="WETop_280" type="car" route="WETop" depart="495" departSpeed="15"/>
    <vehicle id="t3_281" type="car" route="t3" depart="496" departSpeed="15"/>
    <vehicle id="t4_282" type="car" route="t4" depart="500" departSpeed="15"/>
    <vehicle id="WETop_283" type="car" route="WETop" depart="502" departSpeed="15"/>
    <vehicle id="t6_284" type="car" route="t6" depart="502" departSpeed="15"/>
    <vehicle id="WEBottom_285" type="car" route="WEBottom" depart="504" departSpeed="15"/>
    <vehicle id="WETop_286" type="car" route="WETop" depart="506" departSpeed="15"/>
    <vehicle id="NS_287" type="car" route="NS" depart="508" departSpeed="15"/>
    <vehicle id="t6_288" type="car" route="t6" depart="508" departSpeed="15"/>
    <vehicle id="t2_289" type="car" route="t2" depart="509" departSpeed="15"/>
    <vehicle id="EWTop_290" type="car" route="EWTop" depart="510" departSpeed="15"/>
    <vehicle id="NS_291" type="car" route="NS" depart="510" departSpeed="15"/>
    <vehicle id="WEBottom_292" type="car" route="WEBottom" depart="511" departSpeed="15"/>
    <vehicle id="WETop_293" type="car" route="WETop" depart="512" departSpeed="15"/>
    <vehicle id="EWTop_294" type="car" route="EWTop" depart="512" departSpeed="15"/>
    <vehicle id="EWTop_295" type="car" route="EWTop" depart="513" departSpeed="15"/>
    <vehicle id="SN_296" type="car" route="SN" depart="513" departSpeed="15"/>
    <vehicle id="t5_297" type="car" route="t5" depart="513" departSpeed="15"/>
    <vehicle id="t6_298" type="car" route="t6" depart="513" departSpeed="15"/>
    <vehicle id="SN_299" type="car" route="SN" depart="514" departSpeed="15"/>
    <vehicle id="t4_300" type="car" route="t4" depart="519" departSpeed="15"/>
    <vehicle id="NS_301" type="car" route="NS" depart="520" departSpeed="15"/>
    <vehicle id="t2_302" type="car" route="t2" depart="521" departSpeed="15"/>
    <vehicle id="WETop_303" type="car" route="WETop" depart="524" departSpeed="15"/>
    <vehicle id="t6_304" type="car" route="t6" depart="528" departSpeed="15"/>
    <vehicle id="NS_305" type="car" route="NS" depart="532" departSpeed="15"/>
    <vehicle id="t5_306" type="car" route="t5" depart="535" departSpeed="15"/>
    <vehicle id="SN_307" type="car" route="SN" depart="537" departSpeed="15"/>
    <vehicle id="t2_308" type="car" route="t2" depart="537" departSpeed="15"/>
    <vehicle id="t5_309" type="car" route="t5" depart="538" departSpeed="15"/>
    <vehicle id="t4_310" type="car" route="t4" depart="539" departSpeed="15"/>
    <vehicle id="t5_311" type="car" route="t5" depart="539" departSpeed="15"/>
    <vehicle id="t6_312" type="car" route="t6" depart="544" departSpeed="15"/>
    <vehicle id="t6_313" type="car" route="t6" depart="552" departSpeed="15"/>
    <vehicle id="t2_314" type="car" route="t2" depart="555" departSpeed="15"/>
    <vehicle id="t3_315" type="car" route="t3" depart="555" departSpeed="15"/>
    <vehicle id="t6_316" type="car" route="t6" depart="555" departSpeed="15"/>
    <vehicle id="t5_317" type="car" route="t5" depart="557" departSpeed="15"/>
    <vehicle id="t3_318" type="car" route="t3" depart="560" departSpeed="15"/>
    <vehicle id="t5_319" type="car" route="t5" depart="561" departSpeed="15"/>
    <vehicle id="NS_320" type="car" route="NS" depart="562" departSpeed="15"/>
    <vehicle id="WETop_321" type="car" route="WETop" depart="566" departSpeed="15"/>
    <vehicle id="SN_322" type="car" route="SN" depart="568" departSpeed="15"/>
    <vehicle id="SN_323" type="car" route="SN" depart="577" departSpeed="15"/>
    <vehicle id="t3_324" type="car" route="t3" depart="578" departSpeed="15"/>
    <vehicle id="WETop_325" type="car" route="WETop" depart="579" departSpeed="15"/>
    <vehicle id="SN_326" type="car" route="SN" depart="579" departSpeed="15"/>
    <vehicle id="SN_327" type="car" route="SN" depart="581" departSpeed="15"/>
    <vehicle id="t6_328" type="car" route="t6" depart="582" departSpeed="15"/>
    <vehicle id="NS_329" type="car" route="NS" depart="586" departSpeed="15"/>
    <vehicle id="NS_330" type="car" route="NS" depart="587" departSpeed="15"/>
    <vehicle id="WEBottom_331" type="car" route="WEBottom" depart="588" departSpeed="15"/>
    <vehicle id="EWBottom_332" type="car" route="EWBottom" depart="588" departSpeed="15"/>
    <vehicle id="SN_333" type="car" route="SN" depart="591" departSpeed="15"/>
    <vehicle id="EWBottom_334" type="car" route="EWBottom" depart="595" departSpeed="15"/>
    <vehicle id="WETop_335" type="car" route="WETop" depart="596" departSpeed="15"/>
    <vehicle id="SN_336" type="car" route="SN" depart="603" departSpeed="15"/>
    <vehicle id="t5_337" type="car" route="t5" depart="604" departSpeed="15"/>
    <vehicle id="t6_338" type="car" route="t6" depart="604" departSpeed="15"/>
    <vehicle id="t4_339" type="car" route="t4" depart="607" departSpeed="15"/>
    <vehicle id="t3_340" type="car" route="t3" depart="608" departSpeed="15"/>
    <vehicle id="NS_341" type="car" route="NS" depart="610" departSpeed="15"/>
    <vehicle id="t6_342" type="car" route="t6" depart="610" departSpeed="15"/>
    <vehicle id="EWBottom_343" type="car" route="EWBottom" depart="611" departSpeed="15"/>
    <vehicle id="WETop_344" type="car" route="WETop" depart="612" departSpeed="15"/>
    <vehicle id="EWBottom_345" type="car" route="EWBottom" depart="614" departSpeed="15"/>
    <vehicle id="t4_346" type="car" route="t4" depart="615" departSpeed="15"/>
    <vehicle id="t6_347" type="car" route="t6" depart="615" departSpeed="15"/>
    <vehicle id="t6_348" type="car" route="t6" depart="617" departSpeed="15"/>
    <vehicle id="EWTop_349" type="car" route="EWTop" depart="624" departSpeed="15"/>
    <vehicle id="SN_350" type="car" route="SN" depart="624" departSpeed="15"/>
    <vehicle id="EWTop_351" type="car" route="EWTop" depart="625" departSpeed="15"/>
    <vehicle id="t2_352" type="car" route="t2" depart="628" departSpeed="15"/>
    <vehicle id="EWBottom_353" type="car" route="EWBottom" depart="629" departSpeed="15"/>
    <vehicle id="WEBottom_354" type="car" route="WEBottom" depart="632" departSpeed="15"/>
    <vehicle id="t3_355" type="car" route="t3" depart="635" departSpeed="15"/>
    <vehicle id="NS_356" type="car" route="NS" depart="639" departSpeed="15"/>
    <vehicle id="EWTop_357" type="car" route="EWTop" depart="640" departSpeed="15"/>