<routes>
            <vType id="car" accel="1.0" decel="4.5" sigma="0.7" length="5" minGap="3" maxSpeed="15" guiShape="passenger"/>

            <route id="right" edges="1i 2o" />
            <route id="left" edges="2i 1o" />
            <route id="down" edges="4i 3o" />
            <route id="up" edges="3i 4o" />
    <vehicle id="left_0" type="car" route="left" depart="3" departSpeed="5"/>
    <vehicle id="right_1" type="car" route="right" depart="7" departSpeed="5"/>
    <vehicle id="left_2" type="car" route="left" depart="9" departSpeed="5"/>
    <vehicle id="up_3" type="car" route="up" depart="10" departSpeed="5"/>
    <vehicle id="up_4" type="car" route="up" depart="12" departSpeed="5"/>
    <vehicle id="up_5" type="car" route="up" depart="15" departSpeed="5"/>
    <vehicle id="right_6" type="car" route="right" depart="17" departSpeed="5"/>
    <vehicle id="down_7" type="car" route="down" depart="23" departSpeed="5"/>
    <vehicle id="right_8" type="car" route="right" depart="24" departSpeed="5"/>
    <vehicle id="right_9" type="car" route="right" depart="30" departSpeed="5"/>
    <vehicle id="down_10" type="car" route="down" depart="30" departSpeed="5"/>
    <vehicle id="up_11" type="car" route="up" depart="31" departSpeed="5"/>
    <vehicle id="right_12" type="car" route="right" depart="32" departSpeed="5"/>
    <vehicle id="right_13" type="car" route="right" depart="33" departSpeed="5"/>
    <vehicle id="right_14" type="car" route="right" depart="34" departSpeed="5"/>
    <vehicle id="left_15" type="car" route="left" depart="37" departSpeed="5"/>
    <vehicle id="up_16" type="car" route="up" depart="39" departSpeed="5"/>
    <vehicle id="right_17" type="car" route="right" depart="41" departSpeed="5"/>
    <vehicle id="left_18" type="car" route="left" depart="47" departSpeed="5"/>
    <vehicle id="down_19" type="car" route="down" depart="47" departSpeed="5"/>
    <vehicle id="up_20" type="car" route="up" depart="49" departSpeed="5"/>
    <vehicle id="up_21" type="car" route="up" depart="50" departSpeed="5"/>
    <vehicle id="right_22" type="car" route="right" depart="51" departSpeed="5"/>
    <vehicle id="left_23" type="car" route="left" depart="51" departSpeed="5"/>
    <vehicle id="down_24" type="car" route="down" depart="54" departSpeed="5"/>
    <vehicle id="right_25" type="car" route="right" depart="55" departSpeed="5"/>
    <vehicle id="up_26" type="car" route="up" depart="55" departSpeed="5"/>
    <vehicle id="up_27" type="car" route="up" depart="57" departSpeed="5"/>
    <vehicle id="right_28" type="car" route="right" depart="65" departSpeed="5"/>
    <vehicle id="left_29" type="car" route="left" depart="65" departSpeed="5"/>
    <vehicle id="down_30" type="car" route="down" depart="65" departSpeed="5"/>
    <vehicle id="down_31" type="car" route="down" depart="72" departSpeed="5"/>
    <vehicle id="up_32" type="car" route="up" depart="72" departSpeed="5"/>
    <vehicle id="up_33" type="car" route="up" depart="74" departSpeed="5"/>
    <vehicle id="down_34" type="car" route="down" depart="75" departSpeed="5"/>
    <vehicle id="left_35" type="car" route="left" depart="80" departSpeed="5"/>
    <vehicle id="left_36" type="car" route="left" depart="83" departSpeed="5"/>
    <vehicle id="up_37" type="car" route="up" depart="83" departSpeed="5"/>
    <vehicle id="left_38" type="car" route="left" depart="84" departSpeed="5"/>
    <vehicle id="down_39" type="car" route="down" depart="90" departSpeed="5"/>
    <vehicle id="down_40" type="car" route="down" depart="91" departSpeed="5"/>
    <vehicle id="right_41" type="car" route="right" depart="93" departSpeed="5"/>
    <vehicle id="left_42" type="car" route="left" depart="94" departSpeed="5"/>
    <vehicle id="right_43" type="car" route="right" depart="98" departSpeed="5"/>
    <vehicle id="up_44" type="car" route="up" depart="107" departSpeed="5"/>
    <vehicle id="left_45" type="car" route="left" depart="114" departSpeed="5"/>
    <vehicle id="up_46" type="car" route="up" depart="114" departSpeed="5"/>
    <vehicle id="right_47" type="car" route="right" depart="116" departSpeed="5"/>
    <vehicle id="left_48" type="car" route="left" depart="116" departSpeed="5"/>
    <vehicle id="up_49" type="car" route="up" depart="117" departSpeed="5"/>
    <vehicle id="right_50" type="car" route="right" depart="123" departSpeed="5"/>
    <vehicle id="left_51" type="car" route="left" depart="124" departSpeed="5"/>
    <vehicle id="down_52" type="car" route="down" depart="124" departSpeed="5"/>
    <vehicle id="left_53" type="car" route="left" depart="126" departSpeed="5"/>
    <vehicle id="right_54" type="car" route="right" depart="128" departSpeed="5"/>
    <vehicle id="down_55" type="car" route="down" depart="128" departSpeed="5"/>
    <vehicle id="right_56" type="car" route="right" depart="133" departSpeed="5"/>
    <vehicle id="down_57" type="car" route="down" depart="136" departSpeed="5"/>
    <vehicle id="down_58" type="car" route="down" depart="137" departSpeed="5"/>
    <vehicle id="right_59" type="car" route="right" depart="142" departSpeed="5"/>
    <vehicle id="up_60" type="car" route="up" depart="144" departSpeed="5"/>
    <vehicle id="right_61" type="car" route="right" depart="145" departSpeed="5"/>
    <vehicle id="right_62" type="car" route="right" depart="148" departSpeed="5"/>
    <vehicle id="down_63" type="car" route="down" depart="150" departSpeed="5"/>
    <vehicle id="right_64" type="car" route="right" depart="152" departSpeed="5"/>
    <vehicle id="down_65" type="car" route="down" depart="153" departSpeed="5"/>
    <vehicle id="down_66" type="car" route="down" depart="154" departSpeed="5"/>
    <vehicle id="up_67" type="car" route="up" depart="156" departSpeed="5"/>
    <vehicle id="right_68" type="car" route="right" depart="160" departSpeed="5"/>
    <vehicle id="up_69" type="car" route="up" depart="165" departSpeed="5"/>
    <vehicle id="down_70" type="car" route="down" depart="169" departSpeed="5"/>
    <vehicle id="left_71" type="car" route="left" depart="172" departSpeed="5"/>
    <vehicle id="down_72" type="car" route="down" depart="172" departSpeed="5"/>
    <vehicle id="right_73" type="car" route="right" depart="177" departSpeed="5"/>
    <vehicle id="up_74" type="car" route="up" depart="177" departSpeed="5"/>
    <vehicle id="right_75" type="car" route="right" depart="178" departSpeed="5"/>
    <vehicle id="right_76" type="car" route="right" depart="179" departSpeed="5"/>
    <vehicle id="right_77" type="car" route="right" depart="184" departSpeed="5"/>
    <vehicle id="up_78" type="car" route="up" depart="184" departSpeed="5"/>
    <vehicle id="left_79" type="car" route="left" depart="185" departSpeed="5"/>
    <vehicle id="right_80" type="car" route="right" depart="190" departSpeed="5"/>
    <vehicle id="left_81" type="car" route="left" depart="191" departSpeed="5"/>
    <vehicle id="down_82" type="car" route="down" depart="193" departSpeed="5"/>
    <vehicle id="up_83" type="car" route="up" depart="198" departSpeed="5"/>
    <vehicle id="down_84" type="car" route="down" depart="200" departSpeed="5"/>
    <vehicle id="up_85" type="car" route="up" depart="201" departSpeed="5"/>
    <vehicle id="up_86" type="car" route="up" depart="214" departSpeed="5"/>
    <vehicle id="left_87" type="car" route="left" depart="215" departSpeed="5"/>
    <vehicle id="right_88" type="car" route="right" depart="218" departSpeed="5"/>
    <vehicle id="right_89" type="car" route="right" depart="220" departSpeed="5"/>
    <vehicle id="right_90" type="car" route="right" depart="221" departSpeed="5"/>
    <vehicle id="up_91" type="car" route="up" depart="222" departSpeed="5"/>
    <vehicle id="right_92" type="car" route="right" depart="224" departSpeed="5"/>
    <vehicle id="left_93" type="car" route="left" depart="224" departSpeed="5"/>
    <vehicle id="up_94" type="car" route="up" depart="225" departSpeed="5"/>
    <vehicle id="right_95" type="car" route="right" depart="226" departSpeed="5"/>
    <vehicle id="left_96" type="car" route="left" depart="228" departSpeed="5"/>
    <vehicle id="up_97" type="car" route="up" depart="229" departSpeed="5"/>
    <vehicle id="up_98" type="car" route="up" depart="235" departSpeed="5"/>
    <vehicle id="down_99" type="car" route="down" depart="238" departSpeed="5"/>
    <vehicle id="up_100" type="car" route="up" depart="238" departSpeed="5"/>
    <vehicle id="down_101" type="car" route="down" depart="239" departSpeed="5"/>
    <vehicle id="up_102" type="car" route="up" depart="245" departSpeed="5"/>
    <vehicle id="up_103" type="car" route="up" depart="249" departSpeed="5"/>
    <vehicle id="up_104" type="car" route="up" depart="253" departSpeed="5"/>
    <vehicle id="left_105" type="car" route="left" depart="254" departSpeed="5"/>
    <vehicle id="down_106" type="car" route="down" depart="254" departSpeed="5"/>
    <vehicle id="right_107" type="car" route="right" depart="255" departSpeed="5"/>
    <vehicle id="right_108" type="car" route="right" depart="258" departSpeed="5"/>
    <vehicle id="up_109" type="car" route="up" depart="260" departSpeed="5"/>
    <vehicle id="down_110" type="car" route="down" depart="263" departSpeed="5"/>
    <vehicle id="down_111" type="car" route="down" depart="265" departSpeed="5"/>
    <vehicle id="right_112" type="car" route="right" depart="267" departSpeed="5"/>
    <vehicle id="left_113" type="car" route="left" depart="267" departSpeed="5"/>
    <vehicle id="right_114" type="car" route="right" depart="268" departSpeed="5"/>
    <vehicle id="left_115" type="car" route="left" depart="270" departSpeed="5"/>
    <vehicle id="right_116" type="car" route="right" depart="276" departSpeed="5"/>
    <vehicle id="up_117" type="car" route="up" depart="278" departSpeed="5"/>
    <vehicle id="right_118" type="car" route="right" depart="280" departSpeed="5"/>
    <vehicle id="up_119" type="car" route="up" depart="283" departSpeed="5"/>
    <vehicle id="down_120" type="car" route="down" depart="285" departSpeed="5"/>
    <vehicle id="down_121" type="car" route="down" depart="286" departSpeed="5"/>
    <vehicle id="up_122" type="car" route="up" depart="287" departSpeed="5"/>
    <vehicle id="down_123" type="car" route="down" depart="289" departSpeed="5"/>
    <vehicle id="right_124" type="car" route="right" depart="291" departSpeed="5"/>
    <vehicle id="up_125" type="car" route="up" depart="294" departSpeed="5"/>
    <vehicle id="up_126" type="car" route="up" depart="295" departSpeed="5"/>
    <vehicle id="left_127" type="car" route="left" depart="296" departSpeed="5"/>
    <vehicle id="left_128" type="car" route="left" depart="302" departSpeed="5"/>
    <vehicle id="up_129" type="car" route="up" depart="304" departSpeed="5"/>
    <vehicle id="up_130" type="car" route="up" depart="305" departSpeed="5"/>
    <vehicle id="down_131" type="car" route="down" depart="309" departSpeed="5"/>
    <vehicle id="up_132" type="car" route="up" depart="309" departSpeed="5"/>
    <vehicle id="left_133" type="car" route="left" depart="310" departSpeed="5"/>
    <vehicle id="down_134" type="car" route="down" depart="310" departSpeed="5"/>
    <vehicle id="right_135" type="car" route="right" depart="312" departSpeed="5"/>
    <vehicle id="down_136" type="car" route="down" depart="313" departSpeed="5"/>
    <vehicle id="right_137" type="car" route="right" depart="318" departSpeed="5"/>
    <vehicle id="up_138" type="car" route="up" depart="321" departSpeed="5"/>
    <vehicle id="down_139" type="car" route="down" depart="324" departSpeed="5"/>
    <vehicle id="down_140" type="car" route="down" depart="328" departSpeed="5"/>
    <vehicle id="left_141" type="car" route="left" depart="330" departSpeed="5"/>
    <vehicle id="right_142" type="car" route="right" depart="336" departSpeed="5"/>
    <vehicle id="right_143" type="car" route="right" depart="341" departSpeed="5"/>
    <vehicle id="left_144" type="car" route="left" depart="342" departSpeed="5"/>
    <vehicle id="down_145" type="car" route="down" depart="342" departSpeed="5"/>
    <vehicle id="left_146" type="car" route="left" depart="343" departSpeed="5"/>
    <vehicle id="down_147" type="car" route="down" depart="344" departSpeed="5"/>
    <vehicle id="right_148" type="car" route="right" depart="345" departSpeed="5"/>
    <vehicle id="up_149" type="car" route="up" depart="347" departSpeed="5"/>
    <vehicle id="up_150" type="car" route="up" depart="348" departSpeed="5"/>
    <vehicle id="down_151" type="car" route="down" depart="350" departSpeed="5"/>
    <vehicle id="up_152" type="car" route="up" depart="351" departSpeed="5"/>
    <vehicle id="left_153" type="car" route="left" depart="355" departSpeed="5"/>
    <vehicle id="left_154" type="car" route="left" depart="358" departSpeed="5"/>
    <vehicle id="down_155" type="car" route="down" depart="361" departSpeed="5"/>
    <vehicle id="down_156" type="car" route="down" depart="366" departSpeed="5"/>
    <vehicle id="down_157" type="car" route="down" depart="369" departSpeed="5"/>
    <vehicle id="right_158" type="car" route="right" depart="372" departSpeed="5"/>
    <vehicle id="right_159" type="car" route="right" depart="375" departSpeed="5"/>
    <vehicle id="right_160" type="car" route="right" depart="381" departSpeed="5"/>
    <vehicle id="down_161" type="car" route="down" depart="381" departSpeed="5"/>
    <vehicle id="up_162" type="car" route="up" depart="382" departSpeed="5"/>
    <vehicle id="right_163" type="car" route="right" depart="386" departSpeed="5"/>
    <vehicle id="down_164" type="car" route="down" depart="389" departSpeed="5"/>
    <vehicle id="down_165" type="car" route="down" depart="401" departSpeed="5"/>
    <vehicle id="up_166" type="car" route="up" depart="401" departSpeed="5"/>
    <vehicle id="right_167" type="car" route="right" depart="402" departSpeed="5"/>
    <vehicle id="right_168" type="car" route="right" depart="403" departSpeed="5"/>
    <vehicle id="up_169" type="car" route="up" depart="404" departSpeed="5"/>
    <vehicle id="right_170" type="car" route="right" depart="405" departSpeed="5"/>
    <vehicle id="right_171" type="car" route="right" depart="413" departSpeed="5"/>
    <vehicle id="up_172" type="car" route="up" depart="413" departSpeed="5"/>
    <vehicle id="right_173" type="car" route="right" depart="414" departSpeed="5"/>
    <vehicle id="left_174" type="car" route="left" depart="416" departSpeed="5"/>
    <vehicle id="up_175" type="car" route="up" depart="416" departSpeed="5"/>
    <vehicle id="down_176" type="car" route="down" depart="419" departSpeed="5"/>
    <vehicle id="right_177" type="car" route="right" depart="422" departSpeed="5"/>
    <vehicle id="left_178" type="car" route="left" depart="422" departSpeed="5"/>
    <vehicle id="right_179" type="car" route="right" depart="423" departSpeed="5"/>
    <vehicle id="down_180" type="car" route="down" depart="423" departSpeed="5"/>
    <vehicle id="left_181" type="car" route="left" depart="426" departSpeed="5"/>
    <vehicle id="down_182" type="car" route="down" depart="431" departSpeed="5"/>
    <vehicle id="right_183" type="car" route="right" depart="432" departSpeed="5"/>
    <vehicle id="left_184" type="car" route="left" depart="432" departSpeed="5"/>
    <vehicle id="down_185" type="car" route="down" depart="432" departSpeed="5"/>
    <vehicle id="right_186" type="car" route="right" depart="433" departSpeed="5"/>
    <vehicle id="up_187" type="car" route="up" depart="436" departSpeed="5"/>
    <vehicle id="left_188" type="car" route="left" depart="440" departSpeed="5"/>
    <vehicle id="down_189" type="car" route="down" depart="443" departSpeed="5"/>
    <vehicle id="left_190" type="car" route="left" depart="444" departSpeed="5"/>
    <vehicle id="left_191" type="car" route="left" depart="445" departSpeed="5"/>
    <vehicle id="left_192" type="car" route="left" depart="450" departSpeed="5"/>
    <vehicle id="left_193" type="car" route="left" depart="453" departSpeed="5"/>
    <vehicle id="right_194" type="car" route="right" depart="456" departSpeed="5"/>
    <vehicle id="left_195" type="car" route="left" depart="463" departSpeed="5"/>
    <vehicle id="left_196" type="car" route="left" depart="468" departSpeed="5"/>
    <vehicle id="up_197" type="car" route="up" depart="468" departSpeed="5"/>
    <vehicle id="right_198" type="car" route="right" depart="471" departSpeed="5"/>
    <vehicle id="left_199" type="car" route="left" depart="473" departSpeed="5"/>
    <vehicle id="right_200" type="car" route="right" depart="474" departSpeed="5"/>
    <vehicle id="left_201" type="car" route="left" depart="474" departSpeed="5"/>
    <vehicle id="down_202" type="car" route="down" depart="480" departSpeed="5"/>
    <vehicle id="up_203" type="car" route="up" depart="481" departSpeed="5"/>
    <vehicle id="up_204" type="car" route="up" depart="482" departSpeed="5"/>
    <vehicle id="up_205" type="car" route="up" depart="483" departSpeed="5"/>
    <vehicle id="right_206" type="car" route="right" depart="484" departSpeed="5"/>
    <vehicle id="down_207" type="car" route="down" depart="484" departSpeed="5"/>
    <vehicle id="up_208" type="car" route="up" depart="484" departSpeed="5"/>
    <vehicle id="right_209" type="car" route="right" depart="485" departSpeed="5"/>
    <vehicle id="right_210" type="car" route="right" depart="495" departSpeed="5"/>
    <vehicle id="down_211" type="car" route="down" depart="496" departSpeed="5"/>
    <vehicle id="left_212" type="car" route="left" depart="509" departSpeed="5"/>
    <vehicle id="right_213" type="car" route="right" depart="510" departSpeed="5"/>
    <vehicle id="down_214" type="car" route="down" depart="510" departSpeed="5"/>
    <vehicle id="right_215" type="car" route="right" depart="512" departSpeed="5"/>
    <vehicle id="left_216" type="car" route="left" depart="514" departSpeed="5"/>
    <vehicle id="down_217" type="car" route="down" depart="514" departSpeed="5"/>
    <vehicle id="down_218" type="car" route="down" depart="516" departSpeed="5"/>
    <vehicle id="up_219" type="car" route="up" depart="516" departSpeed="5"/>
    <vehicle id="down_220" type="car" route="down" depart="518" departSpeed="5"/>
    <vehicle id="right_221" type="car" route="right" depart="519" departSpeed="5"/>
    <vehicle id="down_222" type="car" route="down" depart="521" departSpeed="5"/>
    <vehicle id="left_223" type="car" route="left" depart="523" departSpeed="5"/>
    <vehicle id="left_224" type="car" route="left" depart="526" departSpeed="5"/>
    <vehicle id="down_225" type="car" route="down" depart="526" departSpeed="5"/>
    <vehicle id="right_226" type="car" route="right" depart="527" departSpeed="5"/>
    <vehicle id="right_227" type="car" route="right" depart="533" departSpeed="5"/>
    <vehicle id="left_228" type="car" route="left" depart="533" departSpeed="5"/>
    <vehicle id="left_229" type="car" route="left" depart="534" departSpeed="5"/>
    <vehicle id="right_230" type="car" route="right" depart="540" departSpeed="5"/>
    <vehicle id="up_231" type="car" route="up" depart="540" departSpeed="5"/>
    <vehicle id="left_232" type="car" route="left" depart="541" departSpeed="5"/>
    <vehicle id="up_233" type="car" route="up" depart="544" departSpeed="5"/>
    <vehicle id="left_234" type="car" route="left" depart="547" departSpeed="5"/>
    <vehicle id="left_235" type="car" route="left" depart="550" departSpeed="5"/>
    <vehicle id="up_236" type="car" route="up" depart="555" departSpeed="5"/>
    <vehicle id="down_237" type="car" route="down" depart="562" departSpeed="5"/>
    <vehicle id="down_238" type="car" route="down" depart="565" departSpeed="5"/>
    <vehicle id="up_239" type="car" route="up" depart="570" departSpeed="5"/>
    <vehicle id="right_240" type="car" route="right" depart="573" departSpeed="5"/>
    <vehicle id="left_241" type="car" route="left" depart="578" departSpeed="5"/>
    <vehicle id="left_242" type="car" route="left" depart="579" departSpeed="5"/>
    <vehicle id="right_243" type="car" route="right" depart="590" departSpeed="5"/>
    <vehicle id="right_244" type="car" route="right" depart="591" departSpeed="5"/>
    <vehicle id="up_245" type="car" route="up" depart="593" departSpeed="5"/>
    <vehicle id="right_246" type="car" route="right" depart="598" departSpeed="5"/>
    <vehicle id="up_247" type="car" route="up" depart="598" departSpeed="5"/>
    <vehicle id="up_248" type="car" route="up" depart="599" departSpeed="5"/>
    <vehicle id="down_249" type="car" route="down" depart="600" departSpeed="5"/>
    <vehicle id="up_250" type="car" route="up" depart="600" departSpeed="5"/>
    <vehicle id="down_251" type="car" route="down" depart="602" departSpeed="5"/>
    <vehicle id="up_252" type="car" route="up" depart="602" departSpeed="5"/>
    <vehicle id="down_253" type="car" route="down" depart="603" departSpeed="5"/>
    <vehicle id="down_254" type="car" route="down" depart="606" departSpeed="5"/>
    <vehicle id="left_255" type="car" route="left" depart="607" departSpeed="5"/>
    <vehicle id="left_256" type="car" route="left" depart="609" departSpeed="5"/>
    <vehicle id="down_257" type="car" route="down" depart="611" departSpeed="5"/>
    <vehicle id="up_258" type="car" route="up" depart="613" departSpeed="5"/>
    <vehicle id="down_259" type="car" route="down" depart="615" departSpeed="5"/>
    <vehicle id="up_260" type="car" route="up" depart="615" departSpeed="5"/>
    <vehicle id="up_261" type="car" route="up" depart="616" departSpeed="5"/>
    <vehicle id="right_262" type="car" route="right" depart="618" departSpeed="5"/>
    <vehicle id="down_263" type="car" route="down" depart="619" departSpeed="5"/>
    <vehicle id="left_264" type="car" route="left" depart="627" departSpeed="5"/>
    <vehicle id="left_265" type="car" route="left" depart="629" departSpeed="5"/>
    <vehicle id="right_266" type="car" route="right" depart="630" departSpeed="5"/>
    <vehicle id="left_267" type="car" route="left" depart="633" departSpeed="5"/>
    <vehicle id="up_268" type="car" route="up" depart="638" departSpeed="5"/>
    <vehicle id="left_269" type="car" route="left" depart="641" departSpeed="5"/>
    <vehicle id="down_270" type="car" route="down" depart="641" departSpeed="5"/>
    <vehicle id="down_271" type="car" route="down" depart="646" departSpeed="5"/>
    <vehicle id="right_272" type="car" route="right" depart="647" departSpeed="5"/>
    <vehicle id="up_273" type="car" route="up" depart="648" departSpeed="5"/>
    <vehicle id="up_274" type="car" route="up" depart="649" departSpeed="5"/>
    <vehicle id="down_275" type="car" route="down" depart="651" departSpeed="5"/>
    <vehicle id="down_276" type="car" route="down" depart="653" departSpeed="5"/>
    <vehicle id="up_277" type="car" route="up" depart="655" departSpeed="5"/>
    <vehicle id="right_278" type="car" route="right" depart="657" departSpeed="5"/>
    <vehicle id="left_279" type="car" route="left" depart="657" departSpeed="5"/>
    <vehicle id="right_280" type="car" route="right" depart="659" departSpeed="5"/>
    <vehicle id="up_281" type="car" route="up" depart="659" departSpeed="5"/>
    <vehicle id="right_282" type="car" route="right" depart="662" departSpeed="5"/>
    <vehicle id="right_283" type="car" route="right" depart="676" departSpeed="5"/>
    <vehicle id="up_284" type="car" route="up" depart="677" departSpeed="5"/>
    <vehicle id="right_285" type="car" route="right" depart="681" departSpeed="5"/>
    <vehicle id="down_286" type="car" route="down" depart="684" departSpeed="5"/>
    <vehicle id="right_287" type="car" route="right" depart="687" departSpeed="5"/>
    <vehicle id="up_288" type="car" route="up" depart="689" departSpeed="5"/>
    <vehicle id="left_289" type="car" route="left" depart="691" departSpeed="5"/>
    <vehicle id="left_290" type="car" route="left" depart="692" departSpeed="5"/>
    <vehicle id="right_291" type="car" route="right" depart="693" departSpeed="5"/>
    <vehicle id="left_292" type="car" route="left" depart="697" departSpeed="5"/>
    <vehicle id="right_293" type="car" route="right" depart="701" departSpeed="5"/>
    <vehicle id="right_294" type="car" route="right" depart="706" departSpeed="5"/>
    <vehicle id="up_295" type="car" route="up" depart="707" departSpeed="5"/>
    <vehicle id="right_296" type="car" route="right" depart="710" departSpeed="5"/>
    <vehicle id="right_297" type="car" route="right" depart="712" departSpeed="5"/>
    <vehicle id="left_298" type="car" route="left" depart="712" departSpeed="5"/>
    <vehicle id="down_299" type="car" route="down" depart="713" departSpeed="5"/>
    <vehicle id="left_300" type="car" route="left" depart="721" departSpeed="5"/>
    <vehicle id="right_301" type="car" route="right" depart="727" departSpeed="5"/>
    <vehicle id="left_302" type="car" route="left" depart="729" departSpeed="5"/>
    <vehicle id="left_303" type="car" route="left" depart="733" departSpeed="5"/>
    <vehicle id="right_304" type="car" route="right" depart="735" departSpeed="5"/>
    <vehicle id="right_305" type="car" route="right" depart="739" departSpeed="5"/>
    <vehicle id="left_306" type="car" route="left" depart="739" departSpeed="5"/>
    <vehicle id="right_307" type="car" route="right" depart="742" departSpeed="5"/>
    <vehicle id="up_308" type="car" route="up" depart="742" departSpeed="5"/>
    <vehicle id="up_309" type="car" route="up" depart="743" departSpeed="5"/>
    <vehicle id="up_310" type="car" route="up" depart="745" departSpeed="5"/>
    <vehicle id="right_311" type="car" route="right" depart="751" departSpeed="5"/>
    <vehicle id="right_312" type="car" route="right" depart="753" departSpeed="5"/>
    <vehicle id="right_313" type="car" route="right" depart="758" departSpeed="5"/>
    <vehicle id="up_314" type="car" route="up" depart="762" departSpeed="5"/>
    <vehicle id="left_315" type="car" route="left" depart="765" departSpeed="5"/>
    <vehicle id="left_316" type="car" route="left" depart="769" departSpeed="5"/>
    <vehicle id="right_317" type="car" route="right" depart="770" departSpeed="5"/>
    <vehicle id="up_318" type="car" route="up" depart="770" departSpeed="5"/>
    <vehicle id="left_319" type="car" route="left" depart="771" departSpeed="5"/>
    <vehicle id="up_320" type="car" route="up" depart="776" departSpeed="5"/>
    <vehicle id="right_321" type="car" route="right" depart="777" departSpeed="5"/>
    <vehicle id="left_322" type="car" route="left" depart="779" departSpeed="5"/>
    <vehicle id="down_323" type="car" route="down" depart="783" departSpeed="5"/>
    <vehicle id="up_324" type="car" route="up" depart="783" departSpeed="5"/>
    <vehicle id="right_325" type="car" route="right" depart="785" departSpeed="5"/>
    <vehicle id="up_326" type="car" route="up" depart="788" departSpeed="5"/>
    <vehicle id="up_327" type="car" route="up" depart="790" departSpeed="5"/>
    <vehicle id="down_328" type="car" route="down" depart="793" departSpeed="5"/>
    <vehicle id="down_329" type="car" route="down" depart="796" departSpeed="5"/>
    <vehicle id="right_330" type="car" route="right" depart="800" departSpeed="5"/>
    <vehicle id="left_331" type="car" route="left" depart="801" departSpeed="5"/>
    <vehicle id="left_332" type="car" route="left" depart="802" departSpeed="5"/>
    <vehicle id="left_333" type="car" route="left" depart="804" departSpeed="5"/>
    <vehicle id="up_334" type="car" route="up" depart="810" departSpeed="5"/>
    <vehicle id="right_335" type="car" route="right" depart="814" departSpeed="5"/>
    <vehicle id="left_336" type="car" route="left" depart="816" departSpeed="5"/>
    <vehicle id="up_337" type="car" route="up" depart="817" departSpeed="5"/>
    <vehicle id="down_338" type="car" route="down" depart="819" departSpeed="5"/>
    <vehicle id="right_339" type="car" route="right" depart="824" departSpeed="5"/>
    <vehicle id="left_340" type="car" route="left" depart="824" departSpeed="5"/>
    <vehicle id="right_341" type="car" route="right" depart="830" departSpeed="5"/>
    <vehicle id="left_342" type="car" route="left" depart="830" departSpeed="5"/>
    <vehicle id="down_343" type="car" route="down" depart="830" departSpeed="5"/>
    <vehicle id="up_344" type="car" route="up" depart="833" departSpeed="5"/>
    <vehicle id="down_345" type="car" route="down" depart="834" departSpeed="5"/>
    <vehicle id="up_346" type="car" route="up" depart="835" departSpeed="5"/>
    <vehicle id="left_347" type="car" route="left" depart="839" departSpeed="5"/>
    <vehicle id="up_348" type="car" route="up" depart="839" departSpeed="5"/>
    <vehicle id="up_349" type="car" route="up" depart="841" departSpeed="5"/>
    <vehicle id="down_350" type="car" route="down" depart="842" departSpeed="5"/>
    <vehicle id="down_351" type="car" route="down" depart="843" departSpeed="5"/>
    <vehicle id="left_352" type="car" route="left" depart="844" departSpeed="5"/>
    <vehicle id="right_353" type="car" route="right" depart="847" departSpeed="5"/>
    <vehicle id="left_354" type="car" route="left" depart="849" departSpeed="5"/>
    <vehicle id="right_355" type="car" route="right" depart="851" departSpeed="5"/>
    <vehicle id="left_356" type="car" route="left" depart="851" departSpeed="5"/>
    <vehicle id="up_357" type="car" route="up" depart="860" departSpeed="5"/>
    <vehicle id="right_358" type="car" route="right" depart="861" departSpeed="5"/>
    <vehicle id="up_359" type="car" route="up" depart="861" departSpeed="5"/>
    <vehicle id="down_360" type="car" route="down" depart="868" departSpeed="5"/>
    <vehicle id="up_361" type="car" route="up" depart="872" departSpeed="5"/>
    <vehicle id="right_362" type="car" route="right" depart="873" departSpeed="5"/>
    <vehicle id="up_363" type="car" route="up" depart="873" departSpeed="5"/>
    <vehicle id="up_364" type="car" route="up" depart="874" departSpeed="5"/>
    <vehicle id="up_365" type="car" route="up" depart="876" departSpeed="5"/>