<routes>
            <vType id="car" accel="1.0" decel="4.5" sigma="0.7" length="5" minGap="3" maxSpeed="15" guiShape="passenger"/>

            <route id="right" edges="1i 2o" />
            <route id="left" edges="2i 1o" />
            <route id="down" edges="4i 3o" />
            <route id="up" edges="3i 4o" />
    <vehicle id="up_0" type="car" route="up" depart="0" departSpeed="5"/>
    <vehicle id="left_1" type="car" route="left" depart="4" departSpeed="5"/>
    <vehicle id="right_2" type="car" route="right" depart="10" departSpeed="5"/>
    <vehicle id="right_3" type="car" route="right" depart="12" departSpeed="5"/>
    <vehicle id="left_4" type="car" route="left" depart="12" departSpeed="5"/>
    <vehicle id="down_5" type="car" route="down" depart="15" departSpeed="5"/>
    <vehicle id="up_6" type="car" route="up" depart="16" departSpeed="5"/>
    <vehicle id="left_7" type="car" route="left" depart="20" departSpeed="5"/>
    <vehicle id="right_8" type="car" route="right" depart="21" departSpeed="5"/>
    <vehicle id="down_9" type="car" route="down" depart="23" departSpeed="5"/>
    <vehicle id="up_10" type="car" route="up" depart="30" departSpeed="5"/>
    <vehicle id="up_11" type="car" route="up" depart="36" departSpeed="5"/>
    <vehicle id="down_12" type="car" route="down" depart="39" departSpeed="5"/>
    <vehicle id="down_13" type="car" route="down" depart="40" departSpeed="5"/>
    <vehicle id="left_14" type="car" route="left" depart="44" departSpeed="5"/>
    <vehicle id="up_15" type="car" route="up" depart="46" departSpeed="5"/>
    <vehicle id="left_16" type="car" route="left" depart="48" departSpeed="5"/>
    <vehicle id="down_17" type="car" route="down" depart="50" departSpeed="5"/>
    <vehicle id="left_18" type="car" route="left" depart="54" departSpeed="5"/>
    <vehicle id="down_19" type="car" route="down" depart="55" departSpeed="5"/>
    <vehicle id="up_20" type="car" route="up" depart="57" departSpeed="5"/>
    <vehicle id="left_21" type="car" route="left" depart="58" departSpeed="5"/>
    <vehicle id="right_22" type="car" route="right" depart="62" departSpeed="5"/>
    <vehicle id="up_23" type="car" route="up" depart="70" departSpeed="5"/>
    <vehicle id="right_24" type="car" route="right" depart="76" departSpeed="5"/>
    <vehicle id="left_25" type="car" route="left" depart="77" departSpeed="5"/>
    <vehicle id="right_26" type="car" route="right" depart="87" departSpeed="5"/>
    <vehicle id="down_27" type="car" route="down" depart="93" departSpeed="5"/>
    <vehicle id="left_28" type="car" route="left" depart="101" departSpeed="5"/>
    <vehicle id="down_29" type="car" route="down" depart="106" departSpeed="5"/>
    <vehicle id="down_30" type="car" route="down" depart="116" departSpeed="5"/>
    <vehicle id="down_31" type="car" route="down" depart="129" departSpeed="5"/>
    <vehicle id="down_32" type="car" route="down" depart="137" departSpeed="5"/>
    <vehicle id="down_33" type="car" route="down" depart="139" departSpeed="5"/>
    <vehicle id="left_34" type="car" route="left" depart="140" departSpeed="5"/>
    <vehicle id="up_35" type="car" route="up" depart="142" departSpeed="5"/>
    <vehicle id="right_36" type="car" route="right" depart="144" departSpeed="5"/>
    <vehicle id="left_37" type="car" route="left" depart="148" departSpeed="5"/>
    <vehicle id="right_38" type="car" route="right" depart="150" departSpeed="5"/>
    <vehicle id="down_39" type="car" route="down" depart="152" departSpeed="5"/>
    <vehicle id="down_40" type="car" route="down" depart="154" departSpeed="5"/>
    <vehicle id="down_41" type="car" route="down" depart="157" departSpeed="5"/>
    <vehicle id="up_42" type="car" route="up" depart="164" departSpeed="5"/>
    <vehicle id="left_43" type="car" route="left" depart="166" departSpeed="5"/>
    <vehicle id="left_44" type="car" route="left" depart="168" departSpeed="5"/>
    <vehicle id="right_45" type="car" route="right" depart="176" departSpeed="5"/>
    <vehicle id="right_46" type="car" route="right" depart="178" departSpeed="5"/>
    <vehicle id="up_47" type="car" route="up" depart="180" departSpeed="5"/>
    <vehicle id="up_48" type="car" route="up" depart="181" departSpeed="5"/>
    <vehicle id="down_49" type="car" route="down" depart="182" departSpeed="5"/>
    <vehicle id="up_50" type="car" route="up" depart="182" departSpeed="5"/>
    <vehicle id="up_51" type="car" route="up" depart="184" departSpeed="5"/>
    <vehicle id="up_52" type="car" route="up" depart="186" departSpeed="5"/>
    <vehicle id="down_53" type="car" route="down" depart="193" departSpeed="5"/>
    <vehicle id="up_54" type="car" route="up" depart="194" departSpeed="5"/>
    <vehicle id="down_55" type="car" route="down" depart="196" departSpeed="5"/>
    <vehicle id="left_56" type="car" route="left" depart="197" departSpeed="5"/>
    <vehicle id="down_57" type="car" route="down" depart="199" departSpeed="5"/>
    <vehicle id="right_58" type="car" route="right" depart="203" departSpeed="5"/>
    <vehicle id="down_59" type="car" route="down" depart="205" departSpeed="5"/>
    <vehicle id="up_60" type="car" route="up" depart="205" departSpeed="5"/>
    <vehicle id="down_61" type="car" route="down" depart="207" departSpeed="5"/>
    <vehicle id="right_62" type="car" route="right" depart="210" departSpeed="5"/>
    <vehicle id="left_63" type="car" route="left" depart="213" departSpeed="5"/>
    <vehicle id="down_64" type="car" route="down" depart="216" departSpeed="5"/>
    <vehicle id="up_65" type="car" route="up" depart="218" departSpeed="5"/>
    <vehicle id="down_66" type="car" route="down" depart="221" departSpeed="5"/>
    <vehicle id="left_67" type="car" route="left" depart="224" departSpeed="5"/>
    <vehicle id="down_68" type="car" route="down" depart="224" departSpeed="5"/>
    <vehicle id="right_69" type="car" route="right" depart="225" departSpeed="5"/>
    <vehicle id="up_70" type="car" route="up" depart="226" departSpeed="5"/>
    <vehicle id="right_71" type="car" route="right" depart="227" departSpeed="5"/>
    <vehicle id="left_72" type="car" route="left" depart="228" departSpeed="5"/>
    <vehicle id="down_73" type="car" route="down" depart="230" departSpeed="5"/>
    <vehicle id="down_74" type="car" route="down" depart="232" departSpeed="5"/>
    <vehicle id="left_75" type="car" route="left" depart="233" departSpeed="5"/>
    <vehicle id="left_76" type="car" route="left" depart="242" departSpeed="5"/>
    <vehicle id="right_77" type="car" route="right" depart="243" departSpeed="5"/>
    <vehicle id="right_78" type="car" route="right" depart="246" departSpeed="5"/>
    <vehicle id="right_79" type="car" route="right" depart="248" departSpeed="5"/>
    <vehicle id="up_80" type="car" route="up" depart="253" departSpeed="5"/>
    <vehicle id="left_81" type="car" route="left" depart="254" departSpeed="5"/>
    <vehicle id="left_82" type="car" route="left" depart="257" departSpeed="5"/>
    <vehicle id="up_83" type="car" route="up" depart="258" departSpeed="5"/>
    <vehicle id="right_84" type="car" route="right" depart="263" departSpeed="5"/>
    <vehicle id="up_85" type="car" route="up" depart="264" departSpeed="5"/>
    <vehicle id="left_86" type="car" route="left" depart="265" departSpeed="5"/>
    <vehicle id="up_87" type="car" route="up" depart="270" departSpeed="5"/>
    <vehicle id="down_88" type="car" route="down" depart="273" departSpeed="5"/>
    <vehicle id="left_89" type="car" route="left" depart="280" departSpeed="5"/>
    <vehicle id="up_90" type="car" route="up" depart="286" departSpeed="5"/>
    <vehicle id="down_91" type="car" route="down" depart="287" departSpeed="5"/>
    <vehicle id="left_92" type="car" route="left" depart="288" departSpeed="5"/>
    <vehicle id="up_93" type="car" route="up" depart="288" departSpeed="5"/>
    <vehicle id="left_94" type="car" route="left" depart="293" departSpeed="5"/>
    <vehicle id="down_95" type="car" route="down" depart="293" departSpeed="5"/>
    <vehicle id="up_96" type="car" route="up" depart="294" departSpeed="5"/>
    <vehicle id="up_97" type="car" route="up" depart="296" departSpeed="5"/>
    <vehicle id="left_98" type="car" route="left" depart="297" departSpeed="5"/>
    <vehicle id="up_99" type="car" route="up" depart="297" departSpeed="5"/>
    <vehicle id="left_100" type="car" route="left" depart="303" departSpeed="5"/>
    <vehicle id="up_101" type="car" route="up" depart="307" departSpeed="5"/>
    <vehicle id="right_102" type="car" route="right" depart="311" departSpeed="5"/>
    <vehicle id="left_103" type="car" route="left" depart="316" departSpeed="5"/>
    <vehicle id="down_104" type="car" route="down" depart="316" departSpeed="5"/>
    <vehicle id="right_105" type="car" route="right" depart="323" departSpeed="5"/>
    <vehicle id="down_106" type="car" route="down" depart="324" departSpeed="5"/>
    <vehicle id="left_107" type="car" route="left" depart="326" departSpeed="5"/>
    <vehicle id="left_108" type="car" route="left" depart="328" departSpeed="5"/>
    <vehicle id="right_109" type="car" route="right" depart="330" departSpeed="5"/>
    <vehicle id="left_110" type="car" route="left" depart="330" departSpeed="5"/>
    <vehicle id="down_111" type="car" route="down" depart="332" departSpeed="5"/>
    <vehicle id="up_112" type="car" route="up" depart="333" departSpeed="5"/>
    <vehicle id="down_113" type="car" route="down" depart="337" departSpeed="5"/>
    <vehicle id="left_114" type="car" route="left" depart="338" departSpeed="5"/>
    <vehicle id="right_115" type="car" route="right" depart="339" departSpeed="5"/>
    <vehicle id="left_116" type="car" route="left" depart="339" departSpeed="5"/>
    <vehicle id="left_117" type="car" route="left" depart="342" departSpeed="5"/>
    <vehicle id="up_118" type="car" route="up" depart="344" departSpeed="5"/>
    <vehicle id="right_119" type="car" route="right" depart="347" departSpeed="5"/>
    <vehicle id="down_120" type="car" route="down" depart="347" departSpeed="5"/>
    <vehicle id="down_121" type="car" route="down" depart="348" departSpeed="5"/>
    <vehicle id="up_122" type="car" route="up" depart="351" departSpeed="5"/>
    <vehicle id="left_123" type="car" route="left" depart="352" departSpeed="5"/>
    <vehicle id="right_124" type="car" route="right" depart="362" departSpeed="5"/>
    <vehicle id="down_125" type="car" route="down" depart="363" departSpeed="5"/>
    <vehicle id="up_126" type="car" route="up" depart="366" departSpeed="5"/>
    <vehicle id="left_127" type="car" route="left" depart="367" departSpeed="5"/>
    <vehicle id="left_128" type="car" route="left" depart="368" departSpeed="5"/>
    <vehicle id="right_129" type="car" route="right" depart="374" departSpeed="5"/>
    <vehicle id="up_130" type="car" route="up" depart="374" departSpeed="5"/>
    <vehicle id="right_131" type="car" route="right" depart="377" departSpeed="5"/>
    <vehicle id="up_132" type="car" route="up" depart="379" departSpeed="5"/>
    <vehicle id="left_133" type="car" route="left" depart="380" departSpeed="5"/>
    <vehicle id="right_134" type="car" route="right" depart="381" departSpeed="5"/>
    <vehicle id="right_135" type="car" route="right" depart="383" departSpeed="5"/>
    <vehicle id="up_136" type="car" route="up" depart="383" departSpeed="5"/>
    <vehicle id="right_137" type="car" route="right" depart="385" departSpeed="5"/>
    <vehicle id="up_138" type="car" route="up" depart="385" departSpeed="5"/>
    <vehicle id="right_139" type="car" route="right" depart="389" departSpeed="5"/>
    <vehicle id="right_140" type="car" route="right" depart="390" departSpeed="5"/>
    <vehicle id="left_141" type="car" route="left" depart="391" departSpeed="5"/>
    <vehicle id="down_142" type="car" route="down" depart="399" departSpeed="5"/>
    <vehicle id="right_143" type="car" route="right" depart="403" departSpeed="5"/>
    <vehicle id="left_144" type="car" route="left" depart="409" departSpeed="5"/>
    <vehicle id="right_145" type="car" route="right" depart="412" departSpeed="5"/>
    <vehicle id="up_146" type="car" route="up" depart="413" departSpeed="5"/>
    <vehicle id="down_147" type="car" route="down" depart="414" departSpeed="5"/>
    <vehicle id="up_148" type="car" route="up" depart="415" departSpeed="5"/>
    <vehicle id="left_149" type="car" route="left" depart="417" departSpeed="5"/>
    <vehicle id="up_150" type="car" route="up" depart="418" departSpeed="5"/>
    <vehicle id="up_151" type="car" route="up" depart="427" departSpeed="5"/>
    <vehicle id="down_152" type="car" route="down" depart="430" departSpeed="5"/>
    <vehicle id="down_153" type="car" route="down" depart="431" departSpeed="5"/>
    <vehicle id="up_154" type="car" route="up" depart="436" departSpeed="5"/>
    <vehicle id="right_155" type="car" route="right" depart="437" departSpeed="5"/>
    <vehicle id="left_156" type="car" route="left" depart="438" departSpeed="5"/>
    <vehicle id="up_157" type="car" route="up" depart="442" departSpeed="5"/>
    <vehicle id="up_158" type="car" route="up" depart="444" departSpeed="5"/>
    <vehicle id="down_159" type="car" route="down" depart="445" departSpeed="5"/>
    <vehicle id="left_160" type="car" route="left" depart="448" departSpeed="5"/>
    <vehicle id="right_161" type="car" route="right" depart="450" departSpeed="5"/>
    <vehicle id="up_162" type="car" route="up" depart="453" departSpeed="5"/>
    <vehicle id="down_163" type="car" route="down" depart="456" departSpeed="5"/>
    <vehicle id="right_164" type="car" route="right" depart="459" departSpeed="5"/>
    <vehicle id="up_165" type="car" route="up" depart="461" departSpeed="5"/>
    <vehicle id="right_166" type="car" route="right" depart="472" departSpeed="5"/>
    <vehicle id="right_167" type="car" route="right" depart="474" departSpeed="5"/>
    <vehicle id="down_168" type="car" route="down" depart="474" departSpeed="5"/>
    <vehicle id="up_169" type="car" route="up" depart="478" departSpeed="5"/>
    <vehicle id="left_170" type="car" route="left" depart="480" departSpeed="5"/>
    <vehicle id="down_171" type="car" route="down" depart="482" departSpeed="5"/>
    <vehicle id="up_172" type="car" route="up" depart="482" departSpeed="5"/>
    <vehicle id="right_173" type="car" route="right" depart="484" departSpeed="5"/>
    <vehicle id="right_174" type="car" route="right" depart="488" departSpeed="5"/>
    <vehicle id="right_175" type="car" route="right" depart="492" departSpeed="5"/>
    <vehicle id="down_176" type="car" route="down" depart="493" departSpeed="5"/>
    <vehicle id="down_177" type="car" route="down" depart="494" departSpeed="5"/>
    <vehicle id="down_178" type="car" route="down" depart="495" departSpeed="5"/>
    <vehicle id="up_179" type="car" route="up" depart="496" departSpeed="5"/>
    <vehicle id="left_180" type="car" route="left" depart="497" departSpeed="5"/>
    <vehicle id="up_181" type="car" route="up" depart="497" departSpeed="5"/>
    <vehicle id="right_182" type="car" route="right" depart="499" departSpeed="5"/>
    <vehicle id="left_183" type="car" route="left" depart="507" departSpeed="5"/>
    <vehicle id="up_184" type="car" route="up" depart="508" departSpeed="5"/>
    <vehicle id="down_185" type="car" route="down" depart="510" departSpeed="5"/>
    <vehicle id="left_186" type="car" route="left" depart="513" departSpeed="5"/>
    <vehicle id="up_187" type="car" route="up" depart="514" departSpeed="5"/>
    <vehicle id="right_188" type="car" route="right" depart="516" departSpeed="5"/>
    <vehicle id="left_189" type="car" route="left" depart="522" departSpeed="5"/>
    <vehicle id="down_190" type="car" route="down" depart="523" departSpeed="5"/>
    <vehicle id="up_191" type="car" route="up" depart="523" departSpeed="5"/>
    <vehicle id="up_192" type="car" route="up" depart="528" departSpeed="5"/>
    <vehicle id="up_193" type="car" route="up" depart="529" departSpeed="5"/>
    <vehicle id="up_194" type="car" route="up" depart="531" departSpeed="5"/>
    <vehicle id="down_195" type="car" route="down" depart="534" departSpeed="5"/>
    <vehicle id="left_196" type="car" route="left" depart="537" departSpeed="5"/>
    <vehicle id="down_197" type="car" route="down" depart="537" departSpeed="5"/>
    <vehicle id="left_198" type="car" route="left" depart="539" departSpeed="5"/>
    <vehicle id="up_199" type="car" route="up" depart="544" departSpeed="5"/>
    <vehicle id="down_200" type="car" route="down" depart="546" departSpeed="5"/>
    <vehicle id="down_201" type="car" route="down" depart="548" departSpeed="5"/>
    <vehicle id="down_202" type="car" route="down" depart="553" departSpeed="5"/>
    <vehicle id="right_203" type="car" route="right" depart="554" departSpeed="5"/>
    <vehicle id="up_204" type="car" route="up" depart="559" departSpeed="5"/>
    <vehicle id="right_205" type="car" route="right" depart="564" departSpeed="5"/>
    <vehicle id="left_206" type="car" route="left" depart="565" departSpeed="5"/>
    <vehicle id="up_207" type="car" route="up" depart="565" departSpeed="5"/>
    <vehicle id="up_208" type="car" route="up" depart="567" departSpeed="5"/>
    <vehicle id="down_209" type="car" route="down" depart="572" departSpeed="5"/>
    <vehicle id="left_210" type="car" route="left" depart="575" departSpeed="5"/>
    <vehicle id="up_211" type="car" route="up" depart="575" departSpeed="5"/>
    <vehicle id="left_212" type="car" route="left" depart="576" departSpeed="5"/>
    <vehicle id="right_213" type="car" route="right" depart="579" departSpeed="5"/>
    <vehicle id="left_214" type="car" route="left" depart="581" departSpeed="5"/>
    <vehicle id="left_215" type="car" route="left" depart="584" departSpeed="5"/>
    <vehicle id="down_216" type="car" route="down" depart="585" departSpeed="5"/>
    <vehicle id="up_217" type="car" route="up" depart="586" departSpeed="5"/>
    <vehicle id="right_218" type="car" route="right" depart="587" departSpeed="5"/>
    <vehicle id="down_219" type="car" route="down" depart="595" departSpeed="5"/>
    <vehicle id="up_220" type="car" route="up" depart="596" departSpeed="5"/>
    <vehicle id="down_221" type="car" route="down" depart="597" departSpeed="5"/>
    <vehicle id="right_222" type="car" route="right" depart="601" departSpeed="5"/>
    <vehicle id="right_223" type="car" route="right" depart="603" departSpeed="5"/>
    <vehicle id="right_224" type="car" route="right" depart="606" departSpeed="5"/>
    <vehicle id="left_225" type="car" route="left" depart="608" departSpeed="5"/>
    <vehicle id="up_226" type="car" route="up" depart="608" departSpeed="5"/>
    <vehicle id="left_227" type="car" route="left" depart="609" departSpeed="5"/>
    <vehicle id="right_228" type="car" route="right" depart="611" departSpeed="5"/>
    <vehicle id="right_229" type="car" route="right" depart="613" departSpeed="5"/>
    <vehicle id="left_230" type="car" route="left" depart="619" departSpeed="5"/>
    <vehicle id="down_231" type="car" route="down" depart="622" departSpeed="5"/>
    <vehicle id="up_232" type="car" route="up" depart="625" departSpeed="5"/>
    <vehicle id="right_233" type="car" route="right" depart="634" departSpeed="5"/>
    <vehicle id="down_234" type="car" route="down" depart="636" departSpeed="5"/>
    <vehicle id="right_235" type="car" route="right" depart="637" departSpeed="5"/>
    <vehicle id="down_236" type="car" route="down" depart="639" departSpeed="5"/>
    <vehicle id="up_237" type="car" route="up" depart="639" departSpeed="5"/>
    <vehicle id="down_238" type="car" route="down" depart="640" departSpeed="5"/>
    <vehicle id="right_239" type="car" route="right" depart="642" departSpeed="5"/>
    <vehicle id="up_240" type="car" route="up" depart="642" departSpeed="5"/>
    <vehicle id="left_241" type="car" route="left" depart="644" departSpeed="5"/>
    <vehicle id="up_242" type="car" route="up" depart="645" departSpeed="5"/>
    <vehicle id="up_243" type="car" route="up" depart="649" departSpeed="5"/>
    <vehicle id="down_244" type="car" route="down" depart="651" departSpeed="5"/>
    <vehicle id="left_245" type="car" route="left" depart="654" departSpeed="5"/>
    <vehicle id="right_246" type="car" route="right" depart="657" departSpeed="5"/>
    <vehicle id="right_247" type="car" route="right" depart="658" departSpeed="5"/>
    <vehicle id="right_248" type="car" route="right" depart="659" departSpeed="5"/>
    <vehicle id="left_249" type="car" route="left" depart="659" departSpeed="5"/>
    <vehicle id="down_250" type="car" route="down" depart="659" departSpeed="5"/>
    <vehicle id="up_251" type="car" route="up" depart="663" departSpeed="5"/>
    <vehicle id="right_252" type="car" route="right" depart="665" departSpeed="5"/>
    <vehicle id="right_253" type="car" route="right" depart="668" departSpeed="5"/>
    <vehicle id="right_254" type="car" route="right" depart="672" departSpeed="5"/>
    <vehicle id="up_255" type="car" route="up" depart="672" departSpeed="5"/>
    <vehicle id="left_256" type="car" route="left" depart="674" departSpeed="5"/>
    <vehicle id="up_257" type="car" route="up" depart="675" departSpeed="5"/>
    <vehicle id="right_258" type="car" route="right" depart="676" departSpeed="5"/>
    <vehicle id="up_259" type="car" route="up" depart="678" departSpeed="5"/>
    <vehicle id="left_260" type="car" route="left" depart="688" departSpeed="5"/>
    <vehicle id="down_261" type="car" route="down" depart="689" departSpeed="5"/>
    <vehicle id="left_262" type="car" route="left" depart="700" departSpeed="5"/>
    <vehicle id="down_263" type="car" route="down" depart="700" departSpeed="5"/>
    <vehicle id="up_264" type="car" route="up" depart="702" departSpeed="5"/>
    <vehicle id="right_265" type="car" route="right" depart="709" departSpeed="5"/>
    <vehicle id="down_266" type="car" route="down" depart="716" departSpeed="5"/>
    <vehicle id="right_267" type="car" route="right" depart="718" departSpeed="5"/>
    <vehicle id="down_268" type="car" route="down" depart="719" departSpeed="5"/>
    <vehicle id="down_269" type="car" route="down" depart="724" departSpeed="5"/>
    <vehicle id="up_270" type="car" route="up" depart="727" departSpeed="5"/>
    <vehicle id="up_271" type="car" route="up" depart="729" departSpeed="5"/>
    <vehicle id="up_272" type="car" route="up" depart="734" departSpeed="5"/>
    <vehicle id="left_273" type="car" route="left" depart="735" departSpeed="5"/>
    <vehicle id="left_274" type="car" route="left" depart="739" departSpeed="5"/>
    <vehicle id="up_275" type="car" route="up" depart="740" departSpeed="5"/>
    <vehicle id="right_276" type="car" route="right" depart="748" departSpeed="5"/>
    <vehicle id="up_277" type="car" route="up" depart="749" departSpeed="5"/>
    <vehicle id="up_278" type="car" route="up" depart="751" departSpeed="5"/>
    <vehicle id="down_279" type="car" route="down" depart="757" departSpeed="5"/>
    <vehicle id="right_280" type="car" route="right" depart="759" departSpeed="5"/>
    <vehicle id="left_281" type="car" route="left" depart="761" departSpeed="5"/>
    <vehicle id="right_282" type="car" route="right" depart="763" departSpeed="5"/>
    <vehicle id="right_283" type="car" route="right" depart="765" departSpeed="5"/>
    <vehicle id="left_284" type="car" route="left" depart="765" departSpeed="5"/>
    <vehicle id="right_285" type="car" route="right" depart="766" departSpeed="5"/>
    <vehicle id="down_286" type="car" route="down" depart="766" departSpeed="5"/>
    <vehicle id="left_287" type="car" route="left" depart="768" departSpeed="5"/>
    <vehicle id="up_288" type="car" route="up" depart="770" departSpeed="5"/>
    <vehicle id="left_289" type="car" route="left" depart="775" departSpeed="5"/>
    <vehicle id="right_290" type="car" route="right" depart="776" departSpeed="5"/>
    <vehicle id="left_291" type="car" route="left" depart="777" departSpeed="5"/>
    <vehicle id="right_292" type="car" route="right" depart="787" departSpeed="5"/>
    <vehicle id="down_293" type="car" route="down" depart="788" departSpeed="5"/>
    <vehicle id="down_294" type="car" route="down" depart="789" departSpeed="5"/>
    <vehicle id="left_295" type="car" route="left" depart="791" departSpeed="5"/>
    <vehicle id="down_296" type="car" route="down" depart="792" departSpeed="5"/>
    <vehicle id="up_297" type="car" route="up" depart="792" departSpeed="5"/>
    <vehicle id="left_298" type="car" route="left" depart="796" departSpeed="5"/>
    <vehicle id="left_299" type="car" route="left" depart="797" departSpeed="5"/>
    <vehicle id="down_300" type="car" route="down" depart="803" departSpeed="5"/>
    <vehicle id="up_301" type="car" route="up" depart="807" departSpeed="5"/>
    <vehicle id="down_302" type="car" route="down" depart="808" departSpeed="5"/>
    <vehicle id="right_303" type="car" route="right" depart="810" departSpeed="5"/>
    <vehicle id="up_304" type="car" route="up" depart="812" departSpeed="5"/>
    <vehicle id="up_305" type="car" route="up" depart="814" departSpeed="5"/>
    <vehicle id="left_306" type="car" route="left" depart="816" departSpeed="5"/>
    <vehicle id="up_307" type="car" route="up" depart="817" departSpeed="5"/>
    <vehicle id="left_308" type="car" route="left" depart="818" departSpeed="5"/>
    <vehicle id="up_309" type="car" route="up" depart="827" departSpeed="5"/>
    <vehicle id="down_310" type="car" route="down" depart="828" departSpeed="5"/>
    <vehicle id="right_311" type="car" route="right" depart="831" departSpeed="5"/>
    <vehicle id="down_312" type="car" route="down" depart="832" departSpeed="5"/>
    <vehicle id="up_313" type="car" route="up" depart="834" departSpeed="5"/>
    <vehicle id="down_314" type="car" route="down" depart="836" departSpeed="5"/>
    <vehicle id="up_315" type="car" route="up" depart="836" departSpeed="5"/>
    <vehicle id="down_316" type="car" route="down" depart="837" departSpeed="5"/>
    <vehicle id="right_317" type="car" route="right" depart="838" departSpeed="5"/>
    <vehicle id="right_318" type="car" route="right" depart="839" departSpeed="5"/>
    <vehicle id="up_319" type="car" route="up" depart="843" departSpeed="5"/>
    <vehicle id="down_320" type="car" route="down" depart="845" departSpeed="5"/>
    <vehicle id="right_321" type="car" route="right" depart="846" departSpeed="5"/>
    <vehicle id="left_322" type="car" route="left" depart="846" departSpeed="5"/>
    <vehicle id="left_323" type="car" route="left" depart="849" departSpeed="5"/>
    <vehicle id="down_324" type="car" route="down" depart="851" departSpeed="5"/>
    <vehicle id="down_325" type="car" route="down" depart="854" departSpeed="5"/>
    <vehicle id="right_326" type="car" route="right" depart="859" departSpeed="5"/>
    <vehicle id="right_327" type="car" route="right" depart="860" departSpeed="5"/>
    <vehicle id="left_328" type="car" route="left" depart="863" departSpeed="5"/>
    <vehicle id="down_329" type="car" route="down" depart="870" departSpeed="5"/>
    <vehicle id="up_330" type="car" route="up" depart="870" departSpeed="5"/>
    <vehicle id="right_331" type="car" route="right" depart="871" departSpeed="5"/>
    <vehicle id="up_332" type="car" route="up" depart="873" departSpeed="5"/>
    <vehicle id="left_333" type="car" route="left" depart="875" departSpeed="5"/>
    <vehicle id="up_334" type="car" route="up" depart="875" departSpeed="5"/>
    <vehicle id="up_335" type="car" route="up" depart="876" departSpeed="5"/>
    <vehicle id="left_336" type="car" route="left" depart="877" departSpeed="5"/>
    <vehicle id="right_337" type="car" route="right" depart="879" departSpeed="5"/>
    <vehicle id="down_338" type="car" route="down" depart="880" departSpeed="5"/>
    <vehicle id="left_339" type="car" route="left" depart="883" departSpeed="5"/>
    <vehicle id="up_340" type="car" route="up" depart="883" departSpeed="5"/>
    <vehicle id="down_341" type="car" route="down" depart="884" departSpeed="5"/>
    <vehicle id="left_342" type="car" route="left" depart="887" departSpeed="5"/>
    <vehicle id="up_343" type="car" route="up" depart="888" departSpeed="5"/>
    <vehicle id="up_344" type="car" route="up" depart="889" departSpeed="5"/>
    <vehicle id="up_345" type="car" route="up" depart="895" departSpeed="5"/>
    <vehicle id="up_346" type="car" route="up" depart="900" departSpeed="5"/>
    <vehicle id="left_347" type="car" route="left" depart="904" departSpeed="5"/>
    <vehicle id="up_348" type="car" route="up" depart="906" departSpeed="5"/>
    <vehicle id="right_349" type="car" route="right" depart="907" departSpeed="5"/>
    <vehicle id="down_350" type="car" route="down" depart="907" departSpeed="5"/>
    <vehicle id="up_351" type="car" route="up" depart="907" departSpeed="5"/>
    <vehicle id="right_352" type="car" route="right" depart="908" departSpeed="5"/>
    <vehicle id="down_353" type="car" route="down" depart="910" departSpeed="5"/>
    <vehicle id="up_354" type="car" route="up" depart="913" departSpeed="5"/>
    <vehicle id="down_355" type="car" route="down" depart="923" departSpeed="5"/>
    <vehicle id="up_356" type="car" route="up" depart="926" departSpeed="5"/>
    <vehicle id="left_357" type="car" route="left" depart="927" departSpeed="5"/>
    <vehicle id="left_358" type="car" route="left" depart="931" departSpeed="5"/>
    <vehicle id="left_359" type="car" route="left" depart="932" departSpeed="5"/>
    <vehicle id="down_360" type="car" route="down" depart="937" departSpeed="5"/>
    <vehicle id="right_361" type="car" route="right" depart="938" departSpeed="5"/>
    <vehicle id="left_362" type="car" route="left" depart="938" departSpeed="5"/>
    <vehicle id="right_363" type="car" route="right" depart="939" departSpeed="5"/>
    <vehicle id="up_364" type="car" route="up" depart="940" departSpeed="5"/>
    <vehicle id="down_365" type="car" route="down" depart="943" departSpeed="5"/>