<routes>
            <vType id="car" accel="1.0" decel="4.5" sigma="0.7" length="5" minGap="3" maxSpeed="15" guiShape="passenger"/>

            <route id="right" edges="1i 2o" />
            <route id="left" edges="2i 1o" />
            <route id="down" edges="4i 3o" />
            <route id="up" edges="3i 4o" />
    <vehicle id="left_0" type="car" route="left" depart="3" departSpeed="5"/>
    <vehicle id="up_1" type="car" route="up" depart="3" departSpeed="5"/>
    <vehicle id="down_2" type="car" route="down" depart="4" departSpeed="5"/>
    <vehicle id="right_3" type="car" route="right" depart="5" departSpeed="5"/>
    <vehicle id="right_4" type="car" route="right" depart="10" departSpeed="5"/>
    <vehicle id="down_5" type="car" route="down" depart="11" departSpeed="5"/>
    <vehicle id="down_6" type="car" route="down" depart="27" departSpeed="5"/>
    <vehicle id="left_7" type="car" route="left" depart="28" departSpeed="5"/>
    <vehicle id="down_8" type="car" route="down" depart="30" departSpeed="5"/>
    <vehicle id="left_9" type="car" route="left" depart="31" departSpeed="5"/>
    <vehicle id="right_10" type="car" route="right" depart="37" departSpeed="5"/>
    <vehicle id="down_11" type="car" route="down" depart="38" departSpeed="5"/>
    <vehicle id="up_12" type="car" route="up" depart="38" departSpeed="5"/>
    <vehicle id="left_13" type="car" route="left" depart="39" departSpeed="5"/>
    <vehicle id="down_14" type="car" route="down" depart="42" departSpeed="5"/>
    <vehicle id="right_15" type="car" route="right" depart="43" departSpeed="5"/>
    <vehicle id="left_16" type="car" route="left" depart="43" departSpeed="5"/>
    <vehicle id="down_17" type="car" route="down" depart="45" departSpeed="5"/>
    <vehicle id="right_18" type="car" route="right" depart="49" departSpeed="5"/>
    <vehicle id="up_19" type="car" route="up" depart="50" departSpeed="5"/>
    <vehicle id="left_20" type="car" route="left" depart="54" departSpeed="5"/>
    <vehicle id="down_21" type="car" route="down" depart="54" departSpeed="5"/>
    <vehicle id="up_22" type="car" route="up" depart="57" departSpeed="5"/>
    <vehicle id="down_23" type="car" route="down" depart="65" departSpeed="5"/>
    <vehicle id="left_24" type="car" route="left" depart="66" departSpeed="5"/>
    <vehicle id="right_25" type="car" route="right" depart="67" departSpeed="5"/>
    <vehicle id="down_26" type="car" route="down" depart="69" departSpeed="5"/>
    <vehicle id="down_27" type="car" route="down" depart="71" departSpeed="5"/>
    <vehicle id="left_28" type="car" route="left" depart="73" departSpeed="5"/>
    <vehicle id="down_29" type="car" route="down" depart="76" departSpeed="5"/>
    <vehicle id="down_30" type="car" route="down" depart="78" departSpeed="5"/>
    <vehicle id="up_31" type="car" route="up" depart="78" departSpeed="5"/>
    <vehicle id="right_32" type="car" route="right" depart="81" departSpeed="5"/>
    <vehicle id="right_33" type="car" route="right" depart="82" departSpeed="5"/>
    <vehicle id="down_34" type="car" route="down" depart="85" departSpeed="5"/>
    <vehicle id="down_35" type="car" route="down" depart="89" departSpeed="5"/>
    <vehicle id="up_36" type="car" route="up" depart="93" departSpeed="5"/>
    <vehicle id="up_37" type="car" route="up" depart="96" departSpeed="5"/>
    <vehicle id="down_38" type="car" route="down" depart="98" departSpeed="5"/>
    <vehicle id="up_39" type="car" route="up" depart="100" departSpeed="5"/>
    <vehicle id="down_40" type="car" route="down" depart="101" departSpeed="5"/>
    <vehicle id="up_41" type="car" route="up" depart="103" departSpeed="5"/>
    <vehicle id="right_42" type="car" route="right" depart="108" departSpeed="5"/>
    <vehicle id="left_43" type="car" route="left" depart="111" departSpeed="5"/>
    <vehicle id="right_44" type="car" route="right" depart="112" departSpeed="5"/>
    <vehicle id="left_45" type="car" route="left" depart="114" departSpeed="5"/>
    <vehicle id="up_46" type="car" route="up" depart="117" departSpeed="5"/>
    <vehicle id="right_47" type="car" route="right" depart="118" departSpeed="5"/>
    <vehicle id="down_48" type="car" route="down" depart="129" departSpeed="5"/>
    <vehicle id="up_49" type="car" route="up" depart="132" departSpeed="5"/>
    <vehicle id="up_50" type="car" route="up" depart="133" departSpeed="5"/>
    <vehicle id="right_51" type="car" route="right" depart="135" departSpeed="5"/>
    <vehicle id="left_52" type="car" route="left" depart="135" departSpeed="5"/>
    <vehicle id="right_53" type="car" route="right" depart="137" departSpeed="5"/>
    <vehicle id="left_54" type="car" route="left" depart="137" departSpeed="5"/>
    <vehicle id="right_55" type="car" route="right" depart="140" departSpeed="5"/>
    <vehicle id="left_56" type="car" route="left" depart="140" departSpeed="5"/>
    <vehicle id="left_57" type="car" route="left" depart="149" departSpeed="5"/>
    <vehicle id="down_58" type="car" route="down" depart="149" departSpeed="5"/>
    <vehicle id="down_59" type="car" route="down" depart="152" departSpeed="5"/>
    <vehicle id="left_60" type="car" route="left" depart="153" departSpeed="5"/>
    <vehicle id="down_61" type="car" route="down" depart="160" departSpeed="5"/>
    <vehicle id="right_62" type="car" route="right" depart="162" departSpeed="5"/>
    <vehicle id="up_63" type="car" route="up" depart="162" departSpeed="5"/>
    <vehicle id="down_64" type="car" route="down" depart="165" departSpeed="5"/>
    <vehicle id="right_65" type="car" route="right" depart="170" departSpeed="5"/>
    <vehicle id="right_66" type="car" route="right" depart="174" departSpeed="5"/>
    <vehicle id="right_67" type="car" route="right" depart="175" departSpeed="5"/>
    <vehicle id="left_68" type="car" route="left" depart="175" departSpeed="5"/>
    <vehicle id="left_69" type="car" route="left" depart="178" departSpeed="5"/>
    <vehicle id="down_70" type="car" route="down" depart="181" departSpeed="5"/>
    <vehicle id="right_71" type="car" route="right" depart="183" departSpeed="5"/>
    <vehicle id="right_72" type="car" route="right" depart="184" departSpeed="5"/>
    <vehicle id="up_73" type="car" route="up" depart="184" departSpeed="5"/>
    <vehicle id="down_74" type="car" route="down" depart="185" departSpeed="5"/>
    <vehicle id="left_75" type="car" route="left" depart="186" departSpeed="5"/>
    <vehicle id="left_76" type="car" route="left" depart="189" departSpeed="5"/>
    <vehicle id="down_77" type="car" route="down" depart="189" departSpeed="5"/>
    <vehicle id="left_78" type="car" route="left" depart="195" departSpeed="5"/>
    <vehicle id="right_79" type="car" route="right" depart="201" departSpeed="5"/>
    <vehicle id="up_80" type="car" route="up" depart="210" departSpeed="5"/>
    <vehicle id="down_81" type="car" route="down" depart="212" departSpeed="5"/>
    <vehicle id="down_82" type="car" route="down" depart="213" departSpeed="5"/>
    <vehicle id="up_83" type="car" route="up" depart="213" departSpeed="5"/>
    <vehicle id="up_84" type="car" route="up" depart="214" departSpeed="5"/>
    <vehicle id="down_85" type="car" route="down" depart="215" departSpeed="5"/>
    <vehicle id="left_86" type="car" route="left" depart="217" departSpeed="5"/>
    <vehicle id="down_87" type="car" route="down" depart="217" departSpeed="5"/>
    <vehicle id="right_88" type="car" route="right" depart="218" departSpeed="5"/>
    <vehicle id="right_89" type="car" route="right" depart="224" departSpeed="5"/>
    <vehicle id="down_90" type="car" route="down" depart="230" departSpeed="5"/>
    <vehicle id="right_91" type="car" route="right" depart="231" departSpeed="5"/>
    <vehicle id="up_92" type="car" route="up" depart="240" departSpeed="5"/>
    <vehicle id="right_93" type="car" route="right" depart="241" departSpeed="5"/>
    <vehicle id="up_94" type="car" route="up" depart="243" departSpeed="5"/>
    <vehicle id="up_95" type="car" route="up" depart="244" departSpeed="5"/>
    <vehicle id="left_96" type="car" route="left" depart="246" departSpeed="5"/>
    <vehicle id="left_97" type="car" route="left" depart="247" departSpeed="5"/>
    <vehicle id="down_98" type="car" route="down" depart="247" departSpeed="5"/>
    <vehicle id="left_99" type="car" route="left" depart="248" departSpeed="5"/>
    <vehicle id="up_100" type="car" route="up" depart="249" departSpeed="5"/>
    <vehicle id="right_101" type="car" route="right" depart="258" departSpeed="5"/>
    <vehicle id="right_102" type="car" route="right" depart="260" departSpeed="5"/>
    <vehicle id="left_103" type="car" route="left" depart="260" departSpeed="5"/>
    <vehicle id="right_104" type="car" route="right" depart="261" departSpeed="5"/>
    <vehicle id="down_105" type="car" route="down" depart="263" departSpeed="5"/>
    <vehicle id="right_106" type="car" route="right" depart="264" departSpeed="5"/>
    <vehicle id="down_107" type="car" route="down" depart="264" departSpeed="5"/>
    <vehicle id="up_108" type="car" route="up" depart="278" departSpeed="5"/>
    <vehicle id="left_109" type="car" route="left" depart="281" departSpeed="5"/>
    <vehicle id="up_110" type="car" route="up" depart="284" departSpeed="5"/>
    <vehicle id="right_111" type="car" route="right" depart="287" departSpeed="5"/>
    <vehicle id="left_112" type="car" route="left" depart="291" departSpeed="5"/>
    <vehicle id="left_113" type="car" route="left" depart="294" departSpeed="5"/>
    <vehicle id="left_114" type="car" route="left" depart="300" departSpeed="5"/>
    <vehicle id="down_115" type="car" route="down" depart="300" departSpeed="5"/>
    <vehicle id="down_116" type="car" route="down" depart="302" departSpeed="5"/>
    <vehicle id="down_117" type="car" route="down" depart="310" departSpeed="5"/>
    <vehicle id="down_118" type="car" route="down" depart="311" departSpeed="5"/>
    <vehicle id="left_119" type="car" route="left" depart="312" departSpeed="5"/>
    <vehicle id="up_120" type="car" route="up" depart="315" departSpeed="5"/>
    <vehicle id="down_121" type="car" route="down" depart="317" departSpeed="5"/>
    <vehicle id="right_122" type="car" route="right" depart="318" departSpeed="5"/>
    <vehicle id="right_123" type="car" route="right" depart="319" departSpeed="5"/>
    <vehicle id="up_124" type="car" route="up" depart="321" departSpeed="5"/>
    <vehicle id="down_125" type="car" route="down" depart="327" departSpeed="5"/>
    <vehicle id="right_126" type="car" route="right" depart="329" departSpeed="5"/>
    <vehicle id="down_127" type="car" route="down" depart="329" departSpeed="5"/>
    <vehicle id="left_128" type="car" route="left" depart="337" departSpeed="5"/>
    <vehicle id="up_129" type="car" route="up" depart="340" departSpeed="5"/>
    <vehicle id="up_130" type="car" route="up" depart="342" departSpeed="5"/>
    <vehicle id="left_131" type="car" route="left" depart="343" departSpeed="5"/>
    <vehicle id="down_132" type="car" route="down" depart="343" departSpeed="5"/>
    <vehicle id="left_133" type="car" route="left" depart="344" departSpeed="5"/>
    <vehicle id="left_134" type="car" route="left" depart="345" departSpeed="5"/>
    <vehicle id="up_135" type="car" route="up" depart="348" departSpeed="5"/>
    <vehicle id="left_136" type="car" route="left" depart="349" departSpeed="5"/>
    <vehicle id="left_137" type="car" route="left" depart="352" departSpeed="5"/>
    <vehicle id="down_138" type="car" route="down" depart="356" departSpeed="5"/>
    <vehicle id="up_139" type="car" route="up" depart="357" departSpeed="5"/>
    <vehicle id="right_140" type="car" route="right" depart="358" departSpeed="5"/>
    <vehicle id="down_141" type="car" route="down" depart="358" departSpeed="5"/>
    <vehicle id="left_142" type="car" route="left" depart="359" departSpeed="5"/>
    <vehicle id="right_143" type="car" route="right" depart="360" departSpeed="5"/>
    <vehicle id="up_144" type="car" route="up" depart="362" departSpeed="5"/>
    <vehicle id="down_145" type="car" route="down" depart="363" departSpeed="5"/>
    <vehicle id="up_146" type="car" route="up" depart="364" departSpeed="5"/>
    <vehicle id="up_147" type="car" route="up" depart="366" departSpeed="5"/>
    <vehicle id="left_148" type="car" route="left" depart="368" departSpeed="5"/>
    <vehicle id="down_149" type="car" route="down" depart="368" departSpeed="5"/>
    <vehicle id="up_150" type="car" route="up" depart="368" departSpeed="5"/>
    <vehicle id="up_151" type="car" route="up" depart="375" departSpeed="5"/>
    <vehicle id="right_152" type="car" route="right" depart="377" departSpeed="5"/>
    <vehicle id="right_153" type="car" route="right" depart="379" departSpeed="5"/>
    <vehicle id="up_154" type="car" route="up" depart="387" departSpeed="5"/>
    <vehicle id="right_155" type="car" route="right" depart="389" departSpeed="5"/>
    <vehicle id="left_156" type="car" route="left" depart="390" departSpeed="5"/>
    <vehicle id="left_157" type="car" route="left" depart="395" departSpeed="5"/>
    <vehicle id="right_158" type="car" route="right" depart="398" departSpeed="5"/>
    <vehicle id="left_159" type="car" route="left" depart="398" departSpeed="5"/>
    <vehicle id="down_160" type="car" route="down" depart="399" departSpeed="5"/>
    <vehicle id="left_161" type="car" route="left" depart="400" departSpeed="5"/>
    <vehicle id="left_162" type="car" route="left" depart="404" departSpeed="5"/>
    <vehicle id="up_163" type="car" route="up" depart="405" departSpeed="5"/>
    <vehicle id="up_164" type="car" route="up" depart="408" departSpeed="5"/>
    <vehicle id="right_165" type="car" route="right" depart="410" departSpeed="5"/>
    <vehicle id="up_166" type="car" route="up" depart="410" departSpeed="5"/>
    <vehicle id="down_167" type="car" route="down" depart="416" departSpeed="5"/>
    <vehicle id="up_168" type="car" route="up" depart="416" departSpeed="5"/>
    <vehicle id="right_169" type="car" route="right" depart="421" departSpeed="5"/>
    <vehicle id="left_170" type="car" route="left" depart="423" departSpeed="5"/>
    <vehicle id="down_171" type="car" route="down" depart="425" departSpeed="5"/>
    <vehicle id="right_172" type="car" route="right" depart="427" departSpeed="5"/>
    <vehicle id="left_173" type="car" route="left" depart="428" departSpeed="5"/>
    <vehicle id="left_174" type="car" route="left" depart="429" departSpeed="5"/>
    <vehicle id="down_175" type="car" route="down" depart="429" departSpeed="5"/>
    <vehicle id="right_176" type="car" route="right" depart="432" departSpeed="5"/>
    <vehicle id="down_177" type="car" route="down" depart="437" departSpeed="5"/>
    <vehicle id="down_178" type="car" route="down" depart="438" departSpeed="5"/>
    <vehicle id="left_179" type="car" route="left" depart="451" departSpeed="5"/>
    <vehicle id="right_180" type="car" route="right" depart="452" departSpeed="5"/>
    <vehicle id="up_181" type="car" route="up" depart="452" departSpeed="5"/>
    <vehicle id="right_182" type="car" route="right" depart="454" departSpeed="5"/>
    <vehicle id="up_183" type="car" route="up" depart="454" departSpeed="5"/>
    <vehicle id="left_184" type="car" route="left" depart="455" departSpeed="5"/>
    <vehicle id="left_185" type="car" route="left" depart="457" departSpeed="5"/>
    <vehicle id="up_186" type="car" route="up" depart="460" departSpeed="5"/>
    <vehicle id="left_187" type="car" route="left" depart="462" departSpeed="5"/>
    <vehicle id="up_188" type="car" route="up" depart="463" departSpeed="5"/>
    <vehicle id="right_189" type="car" route="right" depart="464" departSpeed="5"/>
    <vehicle id="right_190" type="car" route="right" depart="467" departSpeed="5"/>
    <vehicle id="down_191" type="car" route="down" depart="468" departSpeed="5"/>
    <vehicle id="down_192" type="car" route="down" depart="469" departSpeed="5"/>
    <vehicle id="left_193" type="car" route="left" depart="470" departSpeed="5"/>
    <vehicle id="up_194" type="car" route="up" depart="471" departSpeed="5"/>
    <vehicle id="left_195" type="car" route="left" depart="478" departSpeed="5"/>
    <vehicle id="down_196" type="car" route="down" depart="478" departSpeed="5"/>
    <vehicle id="left_197" type="car" route="left" depart="479" departSpeed="5"/>
    <vehicle id="up_198" type="car" route="up" depart="479" departSpeed="5"/>
    <vehicle id="down_199" type="car" route="down" depart="482" departSpeed="5"/>
    <vehicle id="up_200" type="car" route="up" depart="483" departSpeed="5"/>
    <vehicle id="down_201" type="car" route="down" depart="484" departSpeed="5"/>
    <vehicle id="left_202" type="car" route="left" depart="485" departSpeed="5"/>
    <vehicle id="up_203" type="car" route="up" depart="487" departSpeed="5"/>
    <vehicle id="down_204" type="car" route="down" depart="491" departSpeed="5"/>
    <vehicle id="right_205" type="car" route="right" depart="506" departSpeed="5"/>
    <vehicle id="left_206" type="car" route="left" depart="507" departSpeed="5"/>
    <vehicle id="right_207" type="car" route="right" depart="508" departSpeed="5"/>
    <vehicle id="down_208" type="car" route="down" depart="510" departSpeed="5"/>
    <vehicle id="up_209" type="car" route="up" depart="510" departSpeed="5"/>
    <vehicle id="down_210" type="car" route="down" depart="513" departSpeed="5"/>
    <vehicle id="down_211" type="car" route="down" depart="514" departSpeed="5"/>
    <vehicle id="right_212" type="car" route="right" depart="515" departSpeed="5"/>
    <vehicle id="left_213" type="car" route="left" depart="517" departSpeed="5"/>
    <vehicle id="up_214" type="car" route="up" depart="517" departSpeed="5"/>
    <vehicle id="left_215" type="car" route="left" depart="518" departSpeed="5"/>
    <vehicle id="down_216" type="car" route="down" depart="518" departSpeed="5"/>
    <vehicle id="right_217" type="car" route="right" depart="524" departSpeed="5"/>
    <vehicle id="right_218" type="car" route="right" depart="527" departSpeed="5"/>
    <vehicle id="right_219" type="car" route="right" depart="528" departSpeed="5"/>
    <vehicle id="left_220" type="car" route="left" depart="529" departSpeed="5"/>
    <vehicle id="down_221" type="car" route="down" depart="530" departSpeed="5"/>
    <vehicle id="left_222" type="car" route="left" depart="534" departSpeed="5"/>
    <vehicle id="down_223" type="car" route="down" depart="534" departSpeed="5"/>
    <vehicle id="up_224" type="car" route="up" depart="541" departSpeed="5"/>
    <vehicle id="left_225" type="car" route="left" depart="542" departSpeed="5"/>
    <vehicle id="down_226" type="car" route="down" depart="543" departSpeed="5"/>
    <vehicle id="up_227" type="car" route="up" depart="543" departSpeed="5"/>
    <vehicle id="left_228" type="car" route="left" depart="544" departSpeed="5"/>
    <vehicle id="right_229" type="car" route="right" depart="552" departSpeed="5"/>
    <vehicle id="left_230" type="car" route="left" depart="552" departSpeed="5"/>
    <vehicle id="down_231" type="car" route="down" depart="552" departSpeed="5"/>
    <vehicle id="down_232" type="car" route="down" depart="553" departSpeed="5"/>
    <vehicle id="left_233" type="car" route="left" depart="554" departSpeed="5"/>
    <vehicle id="left_234" type="car" route="left" depart="556" departSpeed="5"/>
    <vehicle id="left_235" type="car" route="left" depart="562" departSpeed="5"/>
    <vehicle id="left_236" type="car" route="left" depart="564" departSpeed="5"/>
    <vehicle id="down_237" type="car" route="down" depart="569" departSpeed="5"/>
    <vehicle id="right_238" type="car" route="right" depart="570" departSpeed="5"/>
    <vehicle id="up_239" type="car" route="up" depart="570" departSpeed="5"/>
    <vehicle id="right_240" type="car" route="right" depart="576" departSpeed="5"/>
    <vehicle id="left_241" type="car" route="left" depart="577" departSpeed="5"/>
    <vehicle id="down_242" type="car" route="down" depart="578" departSpeed="5"/>
    <vehicle id="down_243" type="car" route="down" depart="583" departSpeed="5"/>
    <vehicle id="right_244" type="car" route="right" depart="595" departSpeed="5"/>
    <vehicle id="left_245" type="car" route="left" depart="595" departSpeed="5"/>
    <vehicle id="left_246" type="car" route="left" depart="597" departSpeed="5"/>
    <vehicle id="right_247" type="car" route="right" depart="598" departSpeed="5"/>
    <vehicle id="down_248" type="car" route="down" depart="598" departSpeed="5"/>
    <vehicle id="up_249" type="car" route="up" depart="598" departSpeed="5"/>
    <vehicle id="left_250" type="car" route="left" depart="600" departSpeed="5"/>
    <vehicle id="left_251" type="car" route="left" depart="604" departSpeed="5"/>
    <vehicle id="down_252" type="car" route="down" depart="604" departSpeed="5"/>
    <vehicle id="down_253" type="car" route="down" depart="606" departSpeed="5"/>
    <vehicle id="up_254" type="car" route="up" depart="606" departSpeed="5"/>
    <vehicle id="left_255" type="car" route="left" depart="608" departSpeed="5"/>
    <vehicle id="up_256" type="car" route="up" depart="610" departSpeed="5"/>
    <vehicle id="right_257" type="car" route="right" depart="613" departSpeed="5"/>
    <vehicle id="left_258" type="car" route="left" depart="613" departSpeed="5"/>
    <vehicle id="down_259" type="car" route="down" depart="613" departSpeed="5"/>
    <vehicle id="left_260" type="car" route="left" depart="614" departSpeed="5"/>
    <vehicle id="down_261" type="car" route="down" depart="615" departSpeed="5"/>
    <vehicle id="right_262" type="car" route="right" depart="616" departSpeed="5"/>
    <vehicle id="down_263" type="car" route="down" depart="618" departSpeed="5"/>
    <vehicle id="down_264" type="car" route="down" depart="619" departSpeed="5"/>
    <vehicle id="up_265" type="car" route="up" depart="621" departSpeed="5"/>
    <vehicle id="up_266" type="car" route="up" depart="622" departSpeed="5"/>
    <vehicle id="right_267" type="car" route="right" depart="623" departSpeed="5"/>
    <vehicle id="left_268" type="car" route="left" depart="623" departSpeed="5"/>
    <vehicle id="left_269" type="car" route="left" depart="625" departSpeed="5"/>
    <vehicle id="up_270" type="car" route="up" depart="630" departSpeed="5"/>
    <vehicle id="up_271" type="car" route="up" depart="631" departSpeed="5"/>
    <vehicle id="down_272" type="car" route="down" depart="635" departSpeed="5"/>
    <vehicle id="up_273" type="car" route="up" depart="640" departSpeed="5"/>
    <vehicle id="right_274" type="car" route="right" depart="641" departSpeed="5"/>
    <vehicle id="down_275" type="car" route="down" depart="642" departSpeed="5"/>
    <vehicle id="right_276" type="car" route="right" depart="643" departSpeed="5"/>
    <vehicle id="left_277" type="car" route="left" depart="647" departSpeed="5"/>
    <vehicle id="down_278" type="car" route="down" depart="648" departSpeed="5"/>
    <vehicle id="down_279" type="car" route="down" depart="649" departSpeed="5"/>
    <vehicle id="down_280" type="car" route="down" depart="654" departSpeed="5"/>
    <vehicle id="right_281" type="car" route="right" depart="656" departSpeed="5"/>
    <vehicle id="up_282" type="car" route="up" depart="659" departSpeed="5"/>
    <vehicle id="down_283" type="car" route="down" depart="661" departSpeed="5"/>
    <vehicle id="up_284" type="car" route="up" depart="664" departSpeed="5"/>
    <vehicle id="left_285" type="car" route="left" depart="666" departSpeed="5"/>
    <vehicle id="up_286" type="car" route="up" depart="667" departSpeed="5"/>
    <vehicle id="right_287" type="car" route="right" depart="670" departSpeed="5"/>
    <vehicle id="left_288" type="car" route="left" depart="676" departSpeed="5"/>
    <vehicle id="down_289" type="car" route="down" depart="677" departSpeed="5"/>
    <vehicle id="up_290" type="car" route="up" depart="677" departSpeed="5"/>
    <vehicle id="right_291" type="car" route="right" depart="682" departSpeed="5"/>
    <vehicle id="down_292" type="car" route="down" depart="683" departSpeed="5"/>
    <vehicle id="left_293" type="car" route="left" depart="686" departSpeed="5"/>
    <vehicle id="right_294" type="car" route="right" depart="693" departSpeed="5"/>
    <vehicle id="left_295" type="car" route="left" depart="693" departSpeed="5"/>
    <vehicle id="up_296" type="car" route="up" depart="693" departSpeed="5"/>
    <vehicle id="left_297" type="car" route="left" depart="695" departSpeed="5"/>
    <vehicle id="right_298" type="car" route="right" depart="696" departSpeed="5"/>
    <vehicle id="down_299" type="car" route="down" depart="696" departSpeed="5"/>
    <vehicle id="down_300" type="car" route="down" depart="698" departSpeed="5"/>
    <vehicle id="down_301" type="car" route="down" depart="700" departSpeed="5"/>
    <vehicle id="up_302" type="car" route="up" depart="700" departSpeed="5"/>
    <vehicle id="left_303" type="car" route="left" depart="702" departSpeed="5"/>
    <vehicle id="left_304" type="car" route="left" depart="704" departSpeed="5"/>
    <vehicle id="right_305" type="car" route="right" depart="705" departSpeed="5"/>
    <vehicle id="up_306" type="car" route="up" depart="709" departSpeed="5"/>
    <vehicle id="left_307" type="car" route="left" depart="711" departSpeed="5"/>
    <vehicle id="right_308" type="car" route="right" depart="714" departSpeed="5"/>
    <vehicle id="right_309" type="car" route="right" depart="716" departSpeed="5"/>
    <vehicle id="down_310" type="car" route="down" depart="717" departSpeed="5"/>
    <vehicle id="down_311" type="car" route="down" depart="718" departSpeed="5"/>
    <vehicle id="right_312" type="car" route="right" depart="720" departSpeed="5"/>
    <vehicle id="right_313" type="car" route="right" depart="730" departSpeed="5"/>
    <vehicle id="up_314" type="car" route="up" depart="740" departSpeed="5"/>
    <vehicle id="right_315" type="car" route="right" depart="743" departSpeed="5"/>
    <vehicle id="down_316" type="car" route="down" depart="743" departSpeed="5"/>
    <vehicle id="right_317" type="car" route="right" depart="749" departSpeed="5"/>
    <vehicle id="down_318" type="car" route="down" depart="754" departSpeed="5"/>
    <vehicle id="left_319" type="car" route="left" depart="757" departSpeed="5"/>
    <vehicle id="up_320" type="car" route="up" depart="759" departSpeed="5"/>
    <vehicle id="left_321" type="car" route="left" depart="761" departSpeed="5"/>
    <vehicle id="right_322" type="car" route="right" depart="762" departSpeed="5"/>
    <vehicle id="up_323" type="car" route="up" depart="764" departSpeed="5"/>
    <vehicle id="left_324" type="car" route="left" depart="765" departSpeed="5"/>
    <vehicle id="down_325" type="car" route="down" depart="768" departSpeed="5"/>
    <vehicle id="down_326" type="car" route="down" depart="774" departSpeed="5"/>
    <vehicle id="right_327" type="car" route="right" depart="777" departSpeed="5"/>
    <vehicle id="down_328" type="car" route="down" depart="779" departSpeed="5"/>
    <vehicle id="left_329" type="car" route="left" depart="780" departSpeed="5"/>
    <vehicle id="up_330" type="car" route="up" depart="782" departSpeed="5"/>
    <vehicle id="up_331" type="car" route="up" depart="783" departSpeed="5"/>
    <vehicle id="down_332" type="car" route="down" depart="785" departSpeed="5"/>
    <vehicle id="down_333" type="car" route="down" depart="786" departSpeed="5"/>
    <vehicle id="right_334" type="car" route="right" depart="787" departSpeed="5"/>
    <vehicle id="up_335" type="car" route="up" depart="790" departSpeed="5"/>
    <vehicle id="up_336" type="car" route="up" depart="794" departSpeed="5"/>
    <vehicle id="down_337" type="car" route="down" depart="796" departSpeed="5"/>
    <vehicle id="down_338" type="car" route="down" depart="797" departSpeed="5"/>
    <vehicle id="up_339" type="car" route="up" depart="798" departSpeed="5"/>
    <vehicle id="left_340" type="car" route="left" depart="800" departSpeed="5"/>
    <vehicle id="left_341" type="car" route="left" depart="801" departSpeed="5"/>
    <vehicle id="right_342" type="car" route="right" depart="804" departSpeed="5"/>
    <vehicle id="left_343" type="car" route="left" depart="805" departSpeed="5"/>
    <vehicle id="up_344" type="car" route="up" depart="814" departSpeed="5"/>
    <vehicle id="up_345" type="car" route="up" depart="821" departSpeed="5"/>
    <vehicle id="up_346" type="car" route="up" depart="822" departSpeed="5"/>
    <vehicle id="up_347" type="car" route="up" depart="824" departSpeed="5"/>
    <vehicle id="down_348" type="car" route="down" depart="829" departSpeed="5"/>
    <vehicle id="right_349" type="car" route="right" depart="835" departSpeed="5"/>
    <vehicle id="right_350" type="car" route="right" depart="839" departSpeed="5"/>
    <vehicle id="up_351" type="car" route="up" depart="839" departSpeed="5"/>
    <vehicle id="left_352" type="car" route="left" depart="841" departSpeed="5"/>
    <vehicle id="left_353" type="car" route="left" depart="844" departSpeed="5"/>
    <vehicle id="up_354" type="car" route="up" depart="854" departSpeed="5"/>
    <vehicle id="down_355" type="car" route="down" depart="856" departSpeed="5"/>
    <vehicle id="down_356" type="car" route="down" depart="857" departSpeed="5"/>
    <vehicle id="up_357" type="car" route="up" depart="861" departSpeed="5"/>
    <vehicle id="down_358" type="car" route="down" depart="862" departSpeed="5"/>
    <vehicle id="up_359" type="car" route="up" depart="863" departSpeed="5"/>
    <vehicle id="down_360" type="car" route="down" depart="866" departSpeed="5"/>
    <vehicle id="up_361" type="car" route="up" depart="868" departSpeed="5"/>
    <vehicle id="right_362" type="car" route="right" depart="875" departSpeed="5"/>
    <vehicle id="left_363" type="car" route="left" depart="877" departSpeed="5"/>
    <vehicle id="right_364" type="car" route="right" depart="881" departSpeed="5"/>