<routes>
                               <vType id="car" accel="2.0" decel="8.5" sigma="0.7" length="5" minGap="3" maxSpeed="30" guiShape="passenger"/>

                               <route id="WETop" edges="5i 1i 2o" />
                               <route id="EWTop" edges="2i 1o 5o" />
                               <route id="NS" edges="4i 3o 8i" />
                               <route id="SN" edges="8o 3i 4o" />
                               <route id="WEBottom" edges="7o 11o" />
                               <route id="EWBottom" edges="11i 7i" />

                               <route id="t2" edges="8o 7i" />
                               <route id="t3" edges="4i 1o 6i" />
                               <route id="t4" edges="7o 3i 2o" />
                               <route id="t5" edges="6o 1i 4o" />
                               <route id="t6" edges="5i 1i 3o 11o" />
                               
    <vehicle id="t4_0" type="car" route="t4" depart="0" departSpeed="15"/>
    <vehicle id="t6_1" type="car" route="t6" depart="0" departSpeed="15"/>
    <vehicle id="t3_2" type="car" route="t3" depart="1" departSpeed="15"/>
    <vehicle id="EWTop_3" type="car" route="EWTop" depart="3" departSpeed="15"/>
    <vehicle id="NS_4" type="car" route="NS" depart="3" departSpeed="15"/>
    <vehicle id="EWBottom_5" type="car" route="EWBottom" depart="4" departSpeed="15"/>
    <vehicle id="t3_6" type="car" route="t3" depart="5" departSpeed="15"/>
    <vehicle id="t4_7" type="car" route="t4" depart="5" departSpeed="15"/>
    <vehicle id="EWBottom_8" type="car" route="EWBottom" depart="6" departSpeed="15"/>
    <vehicle id="t5_9" type="car" route="t5" depart="6" departSpeed="15"/>
    <vehicle id="NS_10" type="car" route="NS" depart="7" departSpeed="15"/>
    <vehicle id="t2_11" type="car" route="t2" depart="7" departSpeed="15"/>
    <vehicle id="WETop_12" type="car" route="WETop" depart="8" departSpeed="15"/>
    <vehicle id="NS_13" type="car" route="NS" depart="8" departSpeed="15"/>
    <vehicle id="EWBottom_14" type="car" route="EWBottom" depart="9" departSpeed="15"/>
    <vehicle id="NS_15" type="car" route="NS" depart="9" departSpeed="15"/>
    <vehicle id="t3_16" type="car" route="t3" depart="9" departSpeed="15"/>
    <vehicle id="t2_17" type="car" route="t2" depart="10" departSpeed="15"/>
    <vehicle id="WEBottom_18" type="car" route="WEBottom" depart="12" departSpeed="15"/>
    <vehicle id="NS_19" type="car" route="NS" depart="13" departSpeed="15"/>
    <vehicle id="EWBottom_20" type="car" route="EWBottom" depart="14" departSpeed="15"/>
    <vehicle id="t2_21" type="car" route="t2" depart="14" departSpeed="15"/>
    <vehicle id="t2_22" type="car" route="t2" depart="15" departSpeed="15"/>
    <vehicle id="t5_23" type="car" route="t5" depart="15" departSpeed="15"/>
    <vehicle id="NS_24" type="car" route="NS" depart="16" departSpeed="15"/>
    <vehicle id="WEBottom_25" type="car" route="WEBottom" depart="17" departSpeed="15"/>
    <vehicle id="EWTop_26" type="car" route="EWTop" depart="18" departSpeed="15"/>
    <vehicle id="t3_27" type="car" route="t3" depart="19" departSpeed="15"/>
    <vehicle id="WETop_28" type="car" route="WETop" depart="21" departSpeed="15"/>
    <vehicle id="EWBottom_29" type="car" route="EWBottom" depart="22" departSpeed="15"/>
    <vehicle id="WEBottom_30" type="car" route="WEBottom" depart="24" departSpeed="15"/>
    <vehicle id="t2_31" type="car" route="t2" depart="24" departSpeed="15"/>
    <vehicle id="t3_32" type="car" route="t3" depart="24" departSpeed="15"/>
    <vehicle id="EWTop_33" type="car" route="EWTop" depart="25" departSpeed="15"/>
    <vehicle id="t3_34" type="car" route="t3" depart="25" departSpeed="15"/>
    <vehicle id="t6_35" type="car" route="t6" depart="25" departSpeed="15"/>
    <vehicle id="EWTop_36" type="car" route="EWTop" depart="27" departSpeed="15"/>
    <vehicle id="EWTop_37" type="car" route="EWTop" depart="28" departSpeed="15"/>
    <vehicle id="WETop_38" type="car" route="WETop" depart="29" departSpeed="15"/>
    <vehicle id="NS_39" type="car" route="NS" depart="29" departSpeed="15"/>
    <vehicle id="NS_40" type="car" route="NS" depart="30" departSpeed="15"/>
    <vehicle id="t6_41" type="car" route="t6" depart="31" departSpeed="15"/>
    <vehicle id="t4_42" type="car" route="t4" depart="32" departSpeed="15"/>
    <vehicle id="SN_43" type="car" route="SN" depart="33" departSpeed="15"/>
    <vehicle id="t2_44" type="car" route="t2" depart="33" departSpeed="15"/>
    <vehicle id="t4_45" type="car" route="t4" depart="33" departSpeed="15"/>
    <vehicle id="NS_46" type="car" route="NS" depart="34" departSpeed="15"/>
    <vehicle id="SN_47" type="car" route="SN" depart="35" departSpeed="15"/>
    <vehicle id="t6_48" type="car" route="t6" depart="36" departSpeed="15"/>
    <vehicle id="t6_49" type="car" route="t6" depart="37" departSpeed="15"/>
    <vehicle id="NS_50" type="car" route="NS" depart="38" departSpeed="15"/>
    <vehicle id="EWBottom_51" type="car" route="EWBottom" depart="39" departSpeed="15"/>
    <vehicle id="t3_52" type="car" route="t3" depart="39" departSpeed="15"/>
    <vehicle id="NS_53" type="car" route="NS" depart="42" departSpeed="15"/>
    <vehicle id="NS_54" type="car" route="NS" depart="43" departSpeed="15"/>
    <vehicle id="WEBottom_55" type="car" route="WEBottom" depart="44" departSpeed="15"/>
    <vehicle id="SN_56" type="car" route="SN" depart="44" departSpeed="15"/>
    <vehicle id="t2_57" type="car" route="t2" depart="44" departSpeed="15"/>
    <vehicle id="t4_58" type="car" route="t4" depart="44" departSpeed="15"/>
    <vehicle id="WEBottom_59" type="car" route="WEBottom" depart="45" departSpeed="15"/>
    <vehicle id="t4_60" type="car" route="t4" depart="45" departSpeed="15"/>
    <vehicle id="t3_61" type="car" route="t3" depart="46" departSpeed="15"/>
    <vehicle id="t2_62" type="car" route="t2" depart="49" departSpeed="15"/>
    <vehicle id="WETop_63" type="car" route="WETop" depart="51" departSpeed="15"/>
    <vehicle id="NS_64" type="car" route="NS" depart="51" departSpeed="15"/>
    <vehicle id="t2_65" type="car" route="t2" depart="51" departSpeed="15"/>
    <vehicle id="t6_66" type="car" route="t6" depart="54" departSpeed="15"/>
    <vehicle id="EWTop_67" type="car" route="EWTop" depart="55" departSpeed="15"/>
    <vehicle id="EWBottom_68" type="car" route="EWBottom" depart="55" departSpeed="15"/>
    <vehicle id="t5_69" type="car" route="t5" depart="55" departSpeed="15"/>
    <vehicle id="t5_70" type="car" route="t5" depart="59" departSpeed="15"/>
    <vehicle id="t2_71" type="car" route="t2" depart="61" departSpeed="15"/>
    <vehicle id="WEBottom_72" type="car" route="WEBottom" depart="62" departSpeed="15"/>
    <vehicle id="EWBottom_73" type="car" route="EWBottom" depart="64" departSpeed="15"/>
    <vehicle id="WETop_74" type="car" route="WETop" depart="65" departSpeed="15"/>
    <vehicle id="WETop_75" type="car" route="WETop" depart="66" departSpeed="15"/>
    <vehicle id="t6_76" type="car" route="t6" depart="66" departSpeed="15"/>
    <vehicle id="WETop_77" type="car" route="WETop" depart="67" departSpeed="15"/>
    <vehicle id="t4_78" type="car" route="t4" depart="68" departSpeed="15"/>
    <vehicle id="t5_79" type="car" route="t5" depart="68" departSpeed="15"/>
    <vehicle id="t6_80" type="car" route="t6" depart="68" departSpeed="15"/>
    <vehicle id="WETop_81" type="car" route="WETop" depart="69" departSpeed="15"/>
    <vehicle id="SN_82" type="car" route="SN" depart="69" departSpeed="15"/>
    <vehicle id="t3_83" type="car" route="t3" depart="70" departSpeed="15"/>
    <vehicle id="WETop_84" type="car" route="WETop" depart="71" departSpeed="15"/>
    <vehicle id="t3_85" type="car" route="t3" depart="71" departSpeed="15"/>
    <vehicle id="t4_86" type="car" route="t4" depart="72" departSpeed="15"/>
    <vehicle id="t3_87" type="car" route="t3" depart="74" departSpeed="15"/>
    <vehicle id="WETop_88" type="car" route="WETop" depart="77" departSpeed="15"/>
    <vehicle id="NS_89" type="car" route="NS" depart="78" departSpeed="15"/>
    <vehicle id="t2_90" type="car" route="t2" depart="78" departSpeed="15"/>
    <vehicle id="WEBottom_91" type="car" route="WEBottom" depart="79" departSpeed="15"/>
    <vehicle id="t2_92" type="car" route="t2" depart="79" departSpeed="15"/>
    <vehicle id="t5_93" type="car" route="t5" depart="79" departSpeed="15"/>
    <vehicle id="SN_94" type="car" route="SN" depart="80" departSpeed="15"/>
    <vehicle id="t5_95" type="car" route="t5" depart="83" departSpeed="15"/>
    <vehicle id="EWTop_96" type="car" route="EWTop" depart="86" departSpeed="15"/>
    <vehicle id="NS_97" type="car" route="NS" depart="87" departSpeed="15"/>
    <vehicle id="t3_98" type="car" route="t3" depart="90" departSpeed="15"/>
    <vehicle id="WETop_99" type="car" route="WETop" depart="94" departSpeed="15"/>
    <vehicle id="SN_100" type="car" route="SN" depart="94" departSpeed="15"/>
    <vehicle id="t2_101" type="car" route="t2" depart="95" departSpeed="15"/>
    <vehicle id="NS_102" type="car" route="NS" depart="96" departSpeed="15"/>
    <vehicle id="t3_103" type="car" route="t3" depart="96" departSpeed="15"/>
    <vehicle id="t2_104" type="car" route="t2" depart="99" departSpeed="15"/>
    <vehicle id="t3_105" type="car" route="t3" depart="99" departSpeed="15"/>
    <vehicle id="WEBottom_106" type="car" route="WEBottom" depart="100" departSpeed="15"/>
    <vehicle id="t3_107" type="car" route="t3" depart="101" departSpeed="15"/>
    <vehicle id="t2_108" type="car" route="t2" depart="103" departSpeed="15"/>
    <vehicle id="t5_109" type="car" route="t5" depart="103" departSpeed="15"/>
    <vehicle id="t5_110" type="car" route="t5" depart="105" departSpeed="15"/>
    <vehicle id="t3_111" type="car" route="t3" depart="107" departSpeed="15"/>
    <vehicle id="WEBottom_112" type="car" route="WEBottom" depart="108" departSpeed="15"/>
    <vehicle id="EWBottom_113" type="car" route="EWBottom" depart="108" departSpeed="15"/>
    <vehicle id="NS_114" type="car" route="NS" depart="108" departSpeed="15"/>
    <vehicle id="t2_115" type="car" route="t2" depart="108" departSpeed="15"/>
    <vehicle id="t6_116" type="car" route="t6" depart="108" departSpeed="15"/>
    <vehicle id="SN_117" type="car" route="SN" depart="110" departSpeed="15"/>
    <vehicle id="t3_118" type="car" route="t3" depart="111" departSpeed="15"/>
    <vehicle id="SN_119" type="car" route="SN" depart="113" departSpeed="15"/>
    <vehicle id="t3_120" type="car" route="t3" depart="118" departSpeed="15"/>
    <vehicle id="t3_121" type="car" route="t3" depart="121" departSpeed="15"/>
    <vehicle id="t6_122" type="car" route="t6" depart="126" departSpeed="15"/>
    <vehicle id="WETop_123" type="car" route="WETop" depart="130" departSpeed="15"/>
    <vehicle id="t2_124" type="car" route="t2" depart="131" departSpeed="15"/>
    <vehicle id="WEBottom_125" type="car" route="WEBottom" depart="132" departSpeed="15"/>
    <vehicle id="SN_126" type="car" route="SN" depart="132" departSpeed="15"/>
    <vehicle id="t6_127" type="car" route="t6" depart="133" departSpeed="15"/>
    <vehicle id="t4_128" type="car" route="t4" depart="137" departSpeed="15"/>
    <vehicle id="EWTop_129" type="car" route="EWTop" depart="140" departSpeed="15"/>
    <vehicle id="WEBottom_130" type="car" route="WEBottom" depart="140" departSpeed="15"/>
    <vehicle id="NS_131" type="car" route="NS" depart="140" departSpeed="15"/>
    <vehicle id="t6_132" type="car" route="t6" depart="140" departSpeed="15"/>
    <vehicle id="WETop_133" type="car" route="WETop" depart="141" departSpeed="15"/>
    <vehicle id="t2_134" type="car" route="t2" depart="142" departSpeed="15"/>
    <vehicle id="t3_135" type="car" route="t3" depart="142" departSpeed="15"/>
    <vehicle id="WEBottom_136" type="car" route="WEBottom" depart="144" departSpeed="15"/>
    <vehicle id="t2_137" type="car" route="t2" depart="144" departSpeed="15"/>
    <vehicle id="t6_138" type="car" route="t6" depart="144" departSpeed="15"/>
    <vehicle id="WEBottom_139" type="car" route="WEBottom" depart="145" departSpeed="15"/>
    <vehicle id="WEBottom_140" type="car" route="WEBottom" depart="150" departSpeed="15"/>
    <vehicle id="NS_141" type="car" route="NS" depart="151" departSpeed="15"/>
    <vehicle id="t6_142" type="car" route="t6" depart="152" departSpeed="15"/>
    <vehicle id="t6_143" type="car" route="t6" depart="153" departSpeed="15"/>
    <vehicle id="SN_144" type="car" route="SN" depart="154" departSpeed="15"/>
    <vehicle id="SN_145" type="car" route="SN" depart="157" departSpeed="15"/>
    <vehicle id="EWTop_146" type="car" route="EWTop" depart="159" departSpeed="15"/>
    <vehicle id="EWBottom_147" type="car" route="EWBottom" depart="160" departSpeed="15"/>
    <vehicle id="NS_148" type="car" route="NS" depart="161" departSpeed="15"/>
    <vehicle id="SN_149" type="car" route="SN" depart="161" departSpeed="15"/>
    <vehicle id="t5_150" type="car" route="t5" depart="162" departSpeed="15"/>
    <vehicle id="SN_151" type="car" route="SN" depart="163" departSpeed="15"/>
    <vehicle id="WEBottom_152" type="car" route="WEBottom" depart="164" departSpeed="15"/>
    <vehicle id="t6_153" type="car" route="t6" depart="165" departSpeed="15"/>
    <vehicle id="EWBottom_154" type="car" route="EWBottom" depart="166" departSpeed="15"/>
    <vehicle id="WEBottom_155" type="car" route="WEBottom" depart="167" departSpeed="15"/>
    <vehicle id="WETop_156" type="car" route="WETop" depart="169" departSpeed="15"/>
    <vehicle id="SN_157" type="car" route="SN" depart="169" departSpeed="15"/>
    <vehicle id="t4_158" type="car" route="t4" depart="169" departSpeed="15"/>
    <vehicle id="t2_159" type="car" route="t2" depart="170" departSpeed="15"/>
    <vehicle id="t3_160" type="car" route="t3" depart="170" departSpeed="15"/>
    <vehicle id="WEBottom_161" type="car" route="WEBottom" depart="171" departSpeed="15"/>
    <vehicle id="t4_162" type="car" route="t4" depart="171" departSpeed="15"/>
    <vehicle id="t6_163" type="car" route="t6" depart="171" departSpeed="15"/>
    <vehicle id="t2_164" type="car" route="t2" depart="173" departSpeed="15"/>
    <vehicle id="WETop_165" type="car" route="WETop" depart="177" departSpeed="15"/>
    <vehicle id="WEBottom_166" type="car" route="WEBottom" depart="177" departSpeed="15"/>
    <vehicle id="NS_167" type="car" route="NS" depart="179" departSpeed="15"/>
    <vehicle id="t2_168" type="car" route="t2" depart="179" departSpeed="15"/>
    <vehicle id="WETop_169" type="car" route="WETop" depart="180" departSpeed="15"/>
    <vehicle id="EWBottom_170" type="car" route="EWBottom" depart="180" departSpeed="15"/>
    <vehicle id="NS_171" type="car" route="NS" depart="181" departSpeed="15"/>
    <vehicle id="WETop_172" type="car" route="WETop" depart="182" departSpeed="15"/>
    <vehicle id="SN_173" type="car" route="SN" depart="183" departSpeed="15"/>
    <vehicle id="t6_174" type="car" route="t6" depart="183" departSpeed="15"/>
    <vehicle id="WETop_175" type="car" route="WETop" depart="184" departSpeed="15"/>
    <vehicle id="t2_176" type="car" route="t2" depart="184" departSpeed="15"/>
    <vehicle id="t3_177" type="car" route="t3" depart="185" departSpeed="15"/>
    <vehicle id="t4_178" type="car" route="t4" depart="188" departSpeed="15"/>
    <vehicle id="WEBottom_179" type="car" route="WEBottom" depart="190" departSpeed="15"/>
    <vehicle id="t4_180" type="car" route="t4" depart="190" departSpeed="15"/>
    <vehicle id="WETop_181" type="car" route="WETop" depart="191" departSpeed="15"/>
    <vehicle id="WETop_182" type="car" route="WETop" depart="192" departSpeed="15"/>
    <vehicle id="EWTop_183" type="car" route="EWTop" depart="192" departSpeed="15"/>
    <vehicle id="t2_184" type="car" route="t2" depart="192" departSpeed="15"/>
    <vehicle id="t3_185" type="car" route="t3" depart="192" departSpeed="15"/>
    <vehicle id="t2_186" type="car" route="t2" depart="193" departSpeed="15"/>
    <vehicle id="t4_187" type="car" route="t4" depart="193" departSpeed="15"/>
    <vehicle id="t6_188" type="car" route="t6" depart="193" departSpeed="15"/>
    <vehicle id="t5_189" type="car" route="t5" depart="194" departSpeed="15"/>
    <vehicle id="NS_190" type="car" route="NS" depart="195" departSpeed="15"/>
    <vehicle id="t4_191" type="car" route="t4" depart="195" departSpeed="15"/>
    <vehicle id="t2_192" type="car" route="t2" depart="196" departSpeed="15"/>
    <vehicle id="EWTop_193" type="car" route="EWTop" depart="197" departSpeed="15"/>
    <vehicle id="NS_194" type="car" route="NS" depart="197" departSpeed="15"/>
    <vehicle id="t3_195" type="car" route="t3" depart="197" departSpeed="15"/>
    <vehicle id="WEBottom_196" type="car" route="WEBottom" depart="198" departSpeed="15"/>
    <vehicle id="t2_197" type="car" route="t2" depart="199" departSpeed="15"/>
    <vehicle id="t6_198" type="car" route="t6" depart="203" departSpeed="15"/>
    <vehicle id="WETop_199" type="car" route="WETop" depart="204" departSpeed="15"/>
    <vehicle id="EWTop_200" type="car" route="EWTop" depart="204" departSpeed="15"/>
    <vehicle id="t6_201" type="car" route="t6" depart="205" departSpeed="15"/>
    <vehicle id="t3_202" type="car" route="t3" depart="206" departSpeed="15"/>
    <vehicle id="NS_203" type="car" route="NS" depart="207" departSpeed="15"/>
    <vehicle id="t3_204" type="car" route="t3" depart="207" departSpeed="15"/>
    <vehicle id="SN_205" type="car" route="SN" depart="208" departSpeed="15"/>
    <vehicle id="EWBottom_206" type="car" route="EWBottom" depart="209" departSpeed="15"/>
    <vehicle id="EWTop_207" type="car" route="EWTop" depart="210" departSpeed="15"/>
    <vehicle id="t6_208" type="car" route="t6" depart="210" departSpeed="15"/>
    <vehicle id="WEBottom_209" type="car" route="WEBottom" depart="211" departSpeed="15"/>
    <vehicle id="SN_210" type="car" route="SN" depart="211" departSpeed="15"/>
    <vehicle id="t3_211" type="car" route="t3" depart="211" departSpeed="15"/>
    <vehicle id="WEBottom_212" type="car" route="WEBottom" depart="212" departSpeed="15"/>
    <vehicle id="EWBottom_213" type="car" route="EWBottom" depart="214" departSpeed="15"/>
    <vehicle id="t3_214" type="car" route="t3" depart="214" departSpeed="15"/>
    <vehicle id="NS_215" type="car" route="NS" depart="221" departSpeed="15"/>
    <vehicle id="t3_216" type="car" route="t3" depart="221" departSpeed="15"/>
    <vehicle id="WETop_217" type="car" route="WETop" depart="222" departSpeed="15"/>
    <vehicle id="EWTop_218" type="car" route="EWTop" depart="222" departSpeed="15"/>
    <vehicle id="SN_219" type="car" route="SN" depart="222" departSpeed="15"/>
    <vehicle id="t3_220" type="car" route="t3" depart="222" departSpeed="15"/>
    <vehicle id="EWBottom_221" type="car" route="EWBottom" depart="223" departSpeed="15"/>
    <vehicle id="EWTop_222" type="car" route="EWTop" depart="224" departSpeed="15"/>
    <vehicle id="t4_223" type="car" route="t4" depart="224" departSpeed="15"/>
    <vehicle id="NS_224" type="car" route="NS" depart="226" departSpeed="15"/>
    <vehicle id="SN_225" type="car" route="SN" depart="226" departSpeed="15"/>
    <vehicle id="WETop_226" type="car" route="WETop" depart="227" departSpeed="15"/>
    <vehicle id="WETop_227" type="car" route="WETop" depart="228" departSpeed="15"/>
    <vehicle id="EWTop_228" type="car" route="EWTop" depart="229" departSpeed="15"/>
    <vehicle id="SN_229" type="car" route="SN" depart="229" departSpeed="15"/>
    <vehicle id="t4_230" type="car" route="t4" depart="229" departSpeed="15"/>
    <vehicle id="NS_231" type="car" route="NS" depart="230" departSpeed="15"/>
    <vehicle id="SN_232" type="car" route="SN" depart="232" departSpeed="15"/>
    <vehicle id="t2_233" type="car" route="t2" depart="233" departSpeed="15"/>
    <vehicle id="t2_234" type="car" route="t2" depart="234" departSpeed="15"/>
    <vehicle id="NS_235" type="car" route="NS" depart="235" departSpeed="15"/>
    <vehicle id="SN_236" type="car" route="SN" depart="235" departSpeed="15"/>
    <vehicle id="WEBottom_237" type="car" route="WEBottom" depart="237" departSpeed="15"/>
    <vehicle id="t2_238" type="car" route="t2" depart="237" departSpeed="15"/>
    <vehicle id="t6_239" type="car" route="t6" depart="238" departSpeed="15"/>
    <vehicle id="WETop_240" type="car" route="WETop" depart="239" departSpeed="15"/>
    <vehicle id="EWBottom_241" type="car" route="EWBottom" depart="240" departSpeed="15"/>
    <vehicle id="t6_242" type="car" route="t6" depart="240" departSpeed="15"/>
    <vehicle id="WEBottom_243" type="car" route="WEBottom" depart="241" departSpeed="15"/>
    <vehicle id="WETop_244" type="car" route="WETop" depart="242" departSpeed="15"/>
    <vehicle id="t5_245" type="car" route="t5" depart="242" departSpeed="15"/>
    <vehicle id="EWBottom_246" type="car" route="EWBottom" depart="243" departSpeed="15"/>
    <vehicle id="EWTop_247" type="car" route="EWTop" depart="244" departSpeed="15"/>
    <vehicle id="t5_248" type="car" route="t5" depart="244" departSpeed="15"/>
    <vehicle id="EWTop_249" type="car" route="EWTop" depart="245" departSpeed="15"/>
    <vehicle id="t5_250" type="car" route="t5" depart="247" departSpeed="15"/>
    <vehicle id="EWTop_251" type="car" route="EWTop" depart="248" departSpeed="15"/>
    <vehicle id="WEBottom_252" type="car" route="WEBottom" depart="248" departSpeed="15"/>
    <vehicle id="WETop_253" type="car" route="WETop" depart="249" departSpeed="15"/>
    <vehicle id="t2_254" type="car" route="t2" depart="249" departSpeed="15"/>
    <vehicle id="t4_255" type="car" route="t4" depart="249" departSpeed="15"/>
    <vehicle id="t4_256" type="car" route="t4" depart="250" departSpeed="15"/>
    <vehicle id="WETop_257" type="car" route="WETop" depart="252" departSpeed="15"/>
    <vehicle id="t5_258" type="car" route="t5" depart="253" departSpeed="15"/>
    <vehicle id="t3_259" type="car" route="t3" depart="255" departSpeed="15"/>
    <vehicle id="EWTop_260" type="car" route="EWTop" depart="256" departSpeed="15"/>
    <vehicle id="EWBottom_261" type="car" route="EWBottom" depart="256" departSpeed="15"/>
    <vehicle id="SN_262" type="car" route="SN" depart="256" departSpeed="15"/>
    <vehicle id="t2_263" type="car" route="t2" depart="257" departSpeed="15"/>
    <vehicle id="t6_264" type="car" route="t6" depart="257" departSpeed="15"/>
    <vehicle id="t3_265" type="car" route="t3" depart="258" departSpeed="15"/>
    <vehicle id="t4_266" type="car" route="t4" depart="258" departSpeed="15"/>
    <vehicle id="t2_267" type="car" route="t2" depart="260" departSpeed="15"/>
    <vehicle id="WETop_268" type="car" route="WETop" depart="261" departSpeed="15"/>
    <vehicle id="t4_269" type="car" route="t4" depart="262" departSpeed="15"/>
    <vehicle id="t3_270" type="car" route="t3" depart="263" departSpeed="15"/>
    <vehicle id="NS_271" type="car" route="NS" depart="264" departSpeed="15"/>
    <vehicle id="t2_272" type="car" route="t2" depart="264" departSpeed="15"/>
    <vehicle id="EWBottom_273" type="car" route="EWBottom" depart="266" departSpeed="15"/>
    <vehicle id="EWTop_274" type="car" route="EWTop" depart="267" departSpeed="15"/>
    <vehicle id="t5_275" type="car" route="t5" depart="270" departSpeed="15"/>
    <vehicle id="EWBottom_276" type="car" route="EWBottom" depart="271" departSpeed="15"/>
    <vehicle id="t4_277" type="car" route="t4" depart="271" departSpeed="15"/>
    <vehicle id="t2_278" type="car" route="t2" depart="272" departSpeed="15"/>
    <vehicle id="t3_279" type="car" route="t3" depart="272" departSpeed="15"/>
    <vehicle id="EWBottom_280" type="car" route="EWBottom" depart="274" departSpeed="15"/>
    <vehicle id="t2_281" type="car" route="t2" depart="276" departSpeed="15"/>
    <vehicle id="EWBottom_282" type="car" route="EWBottom" depart="278" departSpeed="15"/>
    <vehicle id="WEBottom_283" type="car" route="WEBottom" depart="280" departSpeed="15"/>
    <vehicle id="NS_284" type="car" route="NS" depart="280" departSpeed="15"/>
    <vehicle id="SN_285" type="car" route="SN" depart="281" departSpeed="15"/>
    <vehicle id="NS_286" type="car" route="NS" depart="285" departSpeed="15"/>
    <vehicle id="t4_287" type="car" route="t4" depart="285" departSpeed="15"/>
    <vehicle id="EWTop_288" type="car" route="EWTop" depart="286" departSpeed="15"/>
    <vehicle id="WEBottom_289" type="car" route="WEBottom" depart="287" departSpeed="15"/>
    <vehicle id="EWTop_290" type="car" route="EWTop" depart="289" departSpeed="15"/>
    <vehicle id="WEBottom_291" type="car" route="WEBottom" depart="289" departSpeed="15"/>
    <vehicle id="t5_292" type="car" route="t5" depart="290" departSpeed="15"/>
    <vehicle id="t3_293" type="car" route="t3" depart="292" departSpeed="15"/>
    <vehicle id="WETop_294" type="car" route="WETop" depart="294" departSpeed="15"/>
    <vehicle id="EWTop_295" type="car" route="EWTop" depart="294" departSpeed="15"/>
    <vehicle id="t6_296" type="car" route="t6" depart="295" departSpeed="15"/>
    <vehicle id="t2_297" type="car" route="t2" depart="296" departSpeed="15"/>
    <vehicle id="NS_298" type="car" route="NS" depart="297" departSpeed="15"/>
    <vehicle id="t3_299" type="car" route="t3" depart="297" departSpeed="15"/>
    <vehicle id="t6_300" type="car" route="t6" depart="297" departSpeed="15"/>
    <vehicle id="t4_301" type="car" route="t4" depart="299" departSpeed="15"/>
    <vehicle id="EWTop_302" type="car" route="EWTop" depart="302" departSpeed="15"/>
    <vehicle id="NS_303" type="car" route="NS" depart="302" departSpeed="15"/>
    <vehicle id="t4_304" type="car" route="t4" depart="303" departSpeed="15"/>
    <vehicle id="t6_305" type="car" route="t6" depart="303" departSpeed="15"/>
    <vehicle id="WETop_306" type="car" route="WETop" depart="304" departSpeed="15"/>
    <vehicle id="NS_307" type="car" route="NS" depart="305" departSpeed="15"/>
    <vehicle id="t2_308" type="car" route="t2" depart="305" departSpeed="15"/>
    <vehicle id="t4_309" type="car" route="t4" depart="305" departSpeed="15"/>
    <vehicle id="t4_310" type="car" route="t4" depart="308" departSpeed="15"/>
    <vehicle id="SN_311" type="car" route="SN" depart="309" departSpeed="15"/>
    <vehicle id="t3_312" type="car" route="t3" depart="309" departSpeed="15"/>
    <vehicle id="t4_313" type="car" route="t4" depart="310" departSpeed="15"/>
    <vehicle id="NS_314" type="car" route="NS" depart="311" departSpeed="15"/>
    <vehicle id="WEBottom_315" type="car" route="WEBottom" depart="313" departSpeed="15"/>
    <vehicle id="WEBottom_316" type="car" route="WEBottom" depart="314" departSpeed="15"/>
    <vehicle id="NS_317" type="car" route="NS" depart="314" departSpeed="15"/>
    <vehicle id="t6_318" type="car" route="t6" depart="316" departSpeed="15"/>
    <vehicle id="EWBottom_319" type="car" route="EWBottom" depart="318" departSpeed="15"/>
    <vehicle id="WETop_320" type="car" route="WETop" depart="319" departSpeed="15"/>
    <vehicle id="t5_321" type="car" route="t5" depart="320" departSpeed="15"/>
    <vehicle id="EWBottom_322" type="car" route="EWBottom" depart="321" departSpeed="15"/>
    <vehicle id="t5_323" type="car" route="t5" depart="321" departSpeed="15"/>
    <vehicle id="t2_324" type="car" route="t2" depart="323" departSpeed="15"/>
    <vehicle id="t5_325" type="car" route="t5" depart="323" departSpeed="15"/>
    <vehicle id="WETop_326" type="car" route="WETop" depart="324" departSpeed="15"/>
    <vehicle id="WEBottom_327" type="car" route="WEBottom" depart="324" departSpeed="15"/>
    <vehicle id="t3_328" type="car" route="t3" depart="324" departSpeed="15"/>
    <vehicle id="SN_329" type="car" route="SN" depart="325" departSpeed="15"/>
    <vehicle id="t2_330" type="car" route="t2" depart="325" departSpeed="15"/>
    <vehicle id="t4_331" type="car" route="t4" depart="325" departSpeed="15"/>
    <vehicle id="NS_332" type="car" route="NS" depart="327" departSpeed="15"/>
    <vehicle id="WEBottom_333" type="car" route="WEBottom" depart="328" departSpeed="15"/>
    <vehicle id="SN_334" type="car" route="SN" depart="328" departSpeed="15"/>
    <vehicle id="t6_335" type="car" route="t6" depart="328" departSpeed="15"/>
    <vehicle id="WEBottom_336" type="car" route="WEBottom" depart="329" departSpeed="15"/>
    <vehicle id="EWBottom_337" type="car" route="EWBottom" depart="329" departSpeed="15"/>
    <vehicle id="t6_338" type="car" route="t6" depart="329" departSpeed="15"/>
    <vehicle id="SN_339" type="car" route="SN" depart="330" departSpeed="15"/>
    <vehicle id="EWTop_340" type="car" route="EWTop" depart="331" departSpeed="15"/>
    <vehicle id="EWTop_341" type="car" route="EWTop" depart="332" departSpeed="15"/>
    <vehicle id="t4_342" type="car" route="t4" depart="332" departSpeed="15"/>
    <vehicle id="SN_343" type="car" route="SN" depart="333" departSpeed="15"/>
    <vehicle id="NS_344" type="car" route="NS" depart="334" departSpeed="15"/>
    <vehicle id="SN_345" type="car" route="SN" depart="335" departSpeed="15"/>
    <vehicle id="t3_346" type="car" route="t3" depart="335" departSpeed="15"/>
    <vehicle id="t5_347" type="car" route="t5" depart="335" departSpeed="15"/>
    <vehicle id="t5_348" type="car" route="t5" depart="336" departSpeed="15"/>
    <vehicle id="WETop_349" type="car" route="WETop" depart="337" departSpeed="15"/>
    <vehicle id="WEBottom_350" type="car" route="WEBottom" depart="338" departSpeed="15"/>
    <vehicle id="NS_351" type="car" route="NS" depart="339" departSpeed="15"/>
    <vehicle id="t3_352" type="car" route="t3" depart="344" departSpeed="15"/>
    <vehicle id="SN_353" type="car" route="SN" depart="345" departSpeed="15"/>
    <vehicle id="t2_354" type="car" route="t2" depart="345" departSpeed="15"/>
    <vehicle id="t4_355" type="car" route="t4" depart="349" departSpeed="15"/>
    <vehicle id="t6_356" type="car" route="t6" depart="351" departSpeed="15"/>