<routes>
            <vType id="car" accel="1.0" decel="4.5" sigma="0.7" length="5" minGap="3" maxSpeed="15" guiShape="passenger"/>

            <route id="right" edges="1i 2o" />
            <route id="left" edges="2i 1o" />
            <route id="down" edges="4i 3o" />
            <route id="up" edges="3i 4o" />
    <vehicle id="down_0" type="car" route="down" depart="7" departSpeed="5"/>
    <vehicle id="down_1" type="car" route="down" depart="11" departSpeed="5"/>
    <vehicle id="down_2" type="car" route="down" depart="13" departSpeed="5"/>
    <vehicle id="right_3" type="car" route="right" depart="16" departSpeed="5"/>
    <vehicle id="right_4" type="car" route="right" depart="18" departSpeed="5"/>
    <vehicle id="down_5" type="car" route="down" depart="19" departSpeed="5"/>
    <vehicle id="up_6" type="car" route="up" depart="21" departSpeed="5"/>
    <vehicle id="up_7" type="car" route="up" depart="24" departSpeed="5"/>
    <vehicle id="down_8" type="car" route="down" depart="25" departSpeed="5"/>
    <vehicle id="down_9" type="car" route="down" depart="34" departSpeed="5"/>
    <vehicle id="down_10" type="car" route="down" depart="41" departSpeed="5"/>
    <vehicle id="right_11" type="car" route="right" depart="43" departSpeed="5"/>
    <vehicle id="up_12" type="car" route="up" depart="44" departSpeed="5"/>
    <vehicle id="up_13" type="car" route="up" depart="53" departSpeed="5"/>
    <vehicle id="right_14" type="car" route="right" depart="55" departSpeed="5"/>
    <vehicle id="right_15" type="car" route="right" depart="58" departSpeed="5"/>
    <vehicle id="left_16" type="car" route="left" depart="58" departSpeed="5"/>
    <vehicle id="up_17" type="car" route="up" depart="61" departSpeed="5"/>
    <vehicle id="down_18" type="car" route="down" depart="69" departSpeed="5"/>
    <vehicle id="left_19" type="car" route="left" depart="74" departSpeed="5"/>
    <vehicle id="left_20" type="car" route="left" depart="88" departSpeed="5"/>
    <vehicle id="up_21" type="car" route="up" depart="93" departSpeed="5"/>
    <vehicle id="left_22" type="car" route="left" depart="95" departSpeed="5"/>
    <vehicle id="right_23" type="car" route="right" depart="98" departSpeed="5"/>
    <vehicle id="down_24" type="car" route="down" depart="98" departSpeed="5"/>
    <vehicle id="up_25" type="car" route="up" depart="101" departSpeed="5"/>
    <vehicle id="down_26" type="car" route="down" depart="109" departSpeed="5"/>
    <vehicle id="up_27" type="car" route="up" depart="109" departSpeed="5"/>
    <vehicle id="right_28" type="car" route="right" depart="112" departSpeed="5"/>
    <vehicle id="down_29" type="car" route="down" depart="120" departSpeed="5"/>
    <vehicle id="down_30" type="car" route="down" depart="129" departSpeed="5"/>
    <vehicle id="down_31" type="car" route="down" depart="130" departSpeed="5"/>
    <vehicle id="up_32" type="car" route="up" depart="132" departSpeed="5"/>
    <vehicle id="up_33" type="car" route="up" depart="134" departSpeed="5"/>
    <vehicle id="up_34" type="car" route="up" depart="141" departSpeed="5"/>
    <vehicle id="down_35" type="car" route="down" depart="144" departSpeed="5"/>
    <vehicle id="left_36" type="car" route="left" depart="146" departSpeed="5"/>
    <vehicle id="up_37" type="car" route="up" depart="149" departSpeed="5"/>
    <vehicle id="up_38" type="car" route="up" depart="155" departSpeed="5"/>
    <vehicle id="right_39" type="car" route="right" depart="161" departSpeed="5"/>
    <vehicle id="down_40" type="car" route="down" depart="161" departSpeed="5"/>
    <vehicle id="down_41" type="car" route="down" depart="162" departSpeed="5"/>
    <vehicle id="up_42" type="car" route="up" depart="170" departSpeed="5"/>
    <vehicle id="left_43" type="car" route="left" depart="177" departSpeed="5"/>
    <vehicle id="left_44" type="car" route="left" depart="179" departSpeed="5"/>
    <vehicle id="right_45" type="car" route="right" depart="180" departSpeed="5"/>
    <vehicle id="up_46" type="car" route="up" depart="183" departSpeed="5"/>
    <vehicle id="down_47" type="car" route="down" depart="185" departSpeed="5"/>
    <vehicle id="up_48" type="car" route="up" depart="185" departSpeed="5"/>
    <vehicle id="up_49" type="car" route="up" depart="192" departSpeed="5"/>
    <vehicle id="down_50" type="car" route="down" depart="194" departSpeed="5"/>
    <vehicle id="down_51" type="car" route="down" depart="195" departSpeed="5"/>
    <vehicle id="down_52" type="car" route="down" depart="196" departSpeed="5"/>
    <vehicle id="up_53" type="car" route="up" depart="197" departSpeed="5"/>
    <vehicle id="up_54" type="car" route="up" depart="200" departSpeed="5"/>
    <vehicle id="right_55" type="car" route="right" depart="202" departSpeed="5"/>
    <vehicle id="down_56" type="car" route="down" depart="202" departSpeed="5"/>
    <vehicle id="right_57" type="car" route="right" depart="210" departSpeed="5"/>
    <vehicle id="down_58" type="car" route="down" depart="210" departSpeed="5"/>
    <vehicle id="right_59" type="car" route="right" depart="211" departSpeed="5"/>
    <vehicle id="right_60" type="car" route="right" depart="219" departSpeed="5"/>
    <vehicle id="up_61" type="car" route="up" depart="222" departSpeed="5"/>
    <vehicle id="right_62" type="car" route="right" depart="224" departSpeed="5"/>
    <vehicle id="left_63" type="car" route="left" depart="230" departSpeed="5"/>
    <vehicle id="up_64" type="car" route="up" depart="231" departSpeed="5"/>
    <vehicle id="right_65" type="car" route="right" depart="238" departSpeed="5"/>
    <vehicle id="up_66" type="car" route="up" depart="246" departSpeed="5"/>
    <vehicle id="left_67" type="car" route="left" depart="247" departSpeed="5"/>
    <vehicle id="left_68" type="car" route="left" depart="252" departSpeed="5"/>
    <vehicle id="right_69" type="car" route="right" depart="254" departSpeed="5"/>
    <vehicle id="up_70" type="car" route="up" depart="255" departSpeed="5"/>
    <vehicle id="down_71" type="car" route="down" depart="262" departSpeed="5"/>
    <vehicle id="left_72" type="car" route="left" depart="263" departSpeed="5"/>
    <vehicle id="down_73" type="car" route="down" depart="264" departSpeed="5"/>
    <vehicle id="down_74" type="car" route="down" depart="266" departSpeed="5"/>
    <vehicle id="up_75" type="car" route="up" depart="266" departSpeed="5"/>
    <vehicle id="up_76" type="car" route="up" depart="271" departSpeed="5"/>
    <vehicle id="up_77" type="car" route="up" depart="272" departSpeed="5"/>
    <vehicle id="down_78" type="car" route="down" depart="274" departSpeed="5"/>
    <vehicle id="left_79" type="car" route="left" depart="276" departSpeed="5"/>
    <vehicle id="left_80" type="car" route="left" depart="277" departSpeed="5"/>
    <vehicle id="right_81" type="car" route="right" depart="279" departSpeed="5"/>
    <vehicle id="left_82" type="car" route="left" depart="279" departSpeed="5"/>
    <vehicle id="left_83" type="car" route="left" depart="280" departSpeed="5"/>
    <vehicle id="left_84" type="car" route="left" depart="281" departSpeed="5"/>
    <vehicle id="down_85" type="car" route="down" depart="281" departSpeed="5"/>
    <vehicle id="up_86" type="car" route="up" depart="282" departSpeed="5"/>
    <vehicle id="down_87" type="car" route="down" depart="286" departSpeed="5"/>
    <vehicle id="up_88" type="car" route="up" depart="286" departSpeed="5"/>
    <vehicle id="up_89" type="car" route="up" depart="291" departSpeed="5"/>
    <vehicle id="up_90" type="car" route="up" depart="295" departSpeed="5"/>
    <vehicle id="down_91" type="car" route="down" depart="296" departSpeed="5"/>
    <vehicle id="right_92" type="car" route="right" depart="297" departSpeed="5"/>
    <vehicle id="down_93" type="car" route="down" depart="305" departSpeed="5"/>
    <vehicle id="up_94" type="car" route="up" depart="305" departSpeed="5"/>
    <vehicle id="down_95" type="car" route="down" depart="307" departSpeed="5"/>
    <vehicle id="down_96" type="car" route="down" depart="308" departSpeed="5"/>
    <vehicle id="left_97" type="car" route="left" depart="309" departSpeed="5"/>
    <vehicle id="right_98" type="car" route="right" depart="310" departSpeed="5"/>
    <vehicle id="left_99" type="car" route="left" depart="310" departSpeed="5"/>
    <vehicle id="up_100" type="car" route="up" depart="318" departSpeed="5"/>
    <vehicle id="left_101" type="car" route="left" depart="320" departSpeed="5"/>
    <vehicle id="left_102" type="car" route="left" depart="321" departSpeed="5"/>
    <vehicle id="down_103" type="car" route="down" depart="330" departSpeed="5"/>
    <vehicle id="left_104" type="car" route="left" depart="332" departSpeed="5"/>
    <vehicle id="right_105" type="car" route="right" depart="333" departSpeed="5"/>
    <vehicle id="right_106" type="car" route="right" depart="336" departSpeed="5"/>
    <vehicle id="down_107" type="car" route="down" depart="337" departSpeed="5"/>
    <vehicle id="up_108" type="car" route="up" depart="338" departSpeed="5"/>
    <vehicle id="left_109" type="car" route="left" depart="340" departSpeed="5"/>
    <vehicle id="down_110" type="car" route="down" depart="347" departSpeed="5"/>
    <vehicle id="right_111" type="car" route="right" depart="352" departSpeed="5"/>
    <vehicle id="up_112" type="car" route="up" depart="358" departSpeed="5"/>
    <vehicle id="right_113" type="car" route="right" depart="362" departSpeed="5"/>
    <vehicle id="right_114" type="car" route="right" depart="364" departSpeed="5"/>
    <vehicle id="right_115" type="car" route="right" depart="366" departSpeed="5"/>
    <vehicle id="up_116" type="car" route="up" depart="367" departSpeed="5"/>
    <vehicle id="left_117" type="car" route="left" depart="370" departSpeed="5"/>
    <vehicle id="down_118" type="car" route="down" depart="374" departSpeed="5"/>
    <vehicle id="up_119" type="car" route="up" depart="376" departSpeed="5"/>
    <vehicle id="left_120" type="car" route="left" depart="377" departSpeed="5"/>
    <vehicle id="down_121" type="car" route="down" depart="379" departSpeed="5"/>
    <vehicle id="left_122" type="car" route="left" depart="381" departSpeed="5"/>
    <vehicle id="left_123" type="car" route="left" depart="382" departSpeed="5"/>
    <vehicle id="up_124" type="car" route="up" depart="383" departSpeed="5"/>
    <vehicle id="down_125" type="car" route="down" depart="387" departSpeed="5"/>
    <vehicle id="right_126" type="car" route="right" depart="388" departSpeed="5"/>
    <vehicle id="up_127" type="car" route="up" depart="389" departSpeed="5"/>
    <vehicle id="left_128" type="car" route="left" depart="394" departSpeed="5"/>
    <vehicle id="left_129" type="car" route="left" depart="396" departSpeed="5"/>
    <vehicle id="up_130" type="car" route="up" depart="399" departSpeed="5"/>
    <vehicle id="right_131" type="car" route="right" depart="400" departSpeed="5"/>
    <vehicle id="left_132" type="car" route="left" depart="400" departSpeed="5"/>
    <vehicle id="up_133" type="car" route="up" depart="400" departSpeed="5"/>
    <vehicle id="left_134" type="car" route="left" depart="402" departSpeed="5"/>
    <vehicle id="down_135" type="car" route="down" depart="402" departSpeed="5"/>
    <vehicle id="right_136" type="car" route="right" depart="404" departSpeed="5"/>
    <vehicle id="right_137" type="car" route="right" depart="405" departSpeed="5"/>
    <vehicle id="left_138" type="car" route="left" depart="405" departSpeed="5"/>
    <vehicle id="down_139" type="car" route="down" depart="406" departSpeed="5"/>
    <vehicle id="up_140" type="car" route="up" depart="420" departSpeed="5"/>
    <vehicle id="left_141" type="car" route="left" depart="422" departSpeed="5"/>
    <vehicle id="right_142" type="car" route="right" depart="424" departSpeed="5"/>
    <vehicle id="left_143" type="car" route="left" depart="424" departSpeed="5"/>
    <vehicle id="down_144" type="car" route="down" depart="428" departSpeed="5"/>
    <vehicle id="left_145" type="car" route="left" depart="429" departSpeed="5"/>
    <vehicle id="down_146" type="car" route="down" depart="430" departSpeed="5"/>
    <vehicle id="up_147" type="car" route="up" depart="430" departSpeed="5"/>
    <vehicle id="up_148" type="car" route="up" depart="434" departSpeed="5"/>
    <vehicle id="down_149" type="car" route="down" depart="435" departSpeed="5"/>
    <vehicle id="up_150" type="car" route="up" depart="436" departSpeed="5"/>
    <vehicle id="down_151" type="car" route="down" depart="438" departSpeed="5"/>
    <vehicle id="right_152" type="car" route="right" depart="444" departSpeed="5"/>
    <vehicle id="down_153" type="car" route="down" depart="444" departSpeed="5"/>
    <vehicle id="up_154" type="car" route="up" depart="444" departSpeed="5"/>
    <vehicle id="up_155" type="car" route="up" depart="447" departSpeed="5"/>
    <vehicle id="right_156" type="car" route="right" depart="456" departSpeed="5"/>
    <vehicle id="right_157" type="car" route="right" depart="461" departSpeed="5"/>
    <vehicle id="right_158" type="car" route="right" depart="462" departSpeed="5"/>
    <vehicle id="right_159" type="car" route="right" depart="466" departSpeed="5"/>
    <vehicle id="up_160" type="car" route="up" depart="466" departSpeed="5"/>
    <vehicle id="left_161" type="car" route="left" depart="468" departSpeed="5"/>
    <vehicle id="left_162" type="car" route="left" depart="470" departSpeed="5"/>
    <vehicle id="down_163" type="car" route="down" depart="472" departSpeed="5"/>
    <vehicle id="right_164" type="car" route="right" depart="473" departSpeed="5"/>
    <vehicle id="left_165" type="car" route="left" depart="481" departSpeed="5"/>
    <vehicle id="down_166" type="car" route="down" depart="483" departSpeed="5"/>
    <vehicle id="up_167" type="car" route="up" depart="484" departSpeed="5"/>
    <vehicle id="right_168" type="car" route="right" depart="492" departSpeed="5"/>
    <vehicle id="down_169" type="car" route="down" depart="493" departSpeed="5"/>
    <vehicle id="down_170" type="car" route="down" depart="497" departSpeed="5"/>
    <vehicle id="left_171" type="car" route="left" depart="499" departSpeed="5"/>
    <vehicle id="right_172" type="car" route="right" depart="501" departSpeed="5"/>
    <vehicle id="down_173" type="car" route="down" depart="503" departSpeed="5"/>
    <vehicle id="down_174" type="car" route="down" depart="507" departSpeed="5"/>
    <vehicle id="down_175" type="car" route="down" depart="509" departSpeed="5"/>
    <vehicle id="right_176" type="car" route="right" depart="511" departSpeed="5"/>
    <vehicle id="left_177" type="car" route="left" depart="511" departSpeed="5"/>
    <vehicle id="down_178" type="car" route="down" depart="512" departSpeed="5"/>
    <vehicle id="right_179" type="car" route="right" depart="516" departSpeed="5"/>
    <vehicle id="down_180" type="car" route="down" depart="517" departSpeed="5"/>
    <vehicle id="right_181" type="car" route="right" depart="518" departSpeed="5"/>
    <vehicle id="left_182" type="car" route="left" depart="519" departSpeed="5"/>
    <vehicle id="right_183" type="car" route="right" depart="520" departSpeed="5"/>
    <vehicle id="down_184" type="car" route="down" depart="520" departSpeed="5"/>
    <vehicle id="up_185" type="car" route="up" depart="520" departSpeed="5"/>
    <vehicle id="up_186" type="car" route="up" depart="521" departSpeed="5"/>
    <vehicle id="left_187" type="car" route="left" depart="523" departSpeed="5"/>
    <vehicle id="right_188" type="car" route="right" depart="524" departSpeed="5"/>
    <vehicle id="left_189" type="car" route="left" depart="525" departSpeed="5"/>
    <vehicle id="right_190" type="car" route="right" depart="526" departSpeed="5"/>
    <vehicle id="left_191" type="car" route="left" depart="528" departSpeed="5"/>
    <vehicle id="up_192" type="car" route="up" depart="529" departSpeed="5"/>
    <vehicle id="down_193" type="car" route="down" depart="533" departSpeed="5"/>
    <vehicle id="right_194" type="car" route="right" depart="535" departSpeed="5"/>
    <vehicle id="down_195" type="car" route="down" depart="536" departSpeed="5"/>
    <vehicle id="left_196" type="car" route="left" depart="539" departSpeed="5"/>
    <vehicle id="right_197" type="car" route="right" depart="542" departSpeed="5"/>
    <vehicle id="right_198" type="car" route="right" depart="544" departSpeed="5"/>
    <vehicle id="down_199" type="car" route="down" depart="544" departSpeed="5"/>
    <vehicle id="right_200" type="car" route="right" depart="546" departSpeed="5"/>
    <vehicle id="up_201" type="car" route="up" depart="546" departSpeed="5"/>
    <vehicle id="left_202" type="car" route="left" depart="550" departSpeed="5"/>
    <vehicle id="down_203" type="car" route="down" depart="550" departSpeed="5"/>
    <vehicle id="left_204" type="car" route="left" depart="551" departSpeed="5"/>
    <vehicle id="right_205" type="car" route="right" depart="552" departSpeed="5"/>
    <vehicle id="left_206" type="car" route="left" depart="554" departSpeed="5"/>
    <vehicle id="right_207" type="car" route="right" depart="555" departSpeed="5"/>
    <vehicle id="up_208" type="car" route="up" depart="555" departSpeed="5"/>
    <vehicle id="right_209" type="car" route="right" depart="558" departSpeed="5"/>
    <vehicle id="up_210" type="car" route="up" depart="558" departSpeed="5"/>
    <vehicle id="up_211" type="car" route="up" depart="562" departSpeed="5"/>
    <vehicle id="down_212" type="car" route="down" depart="565" departSpeed="5"/>
    <vehicle id="down_213" type="car" route="down" depart="566" departSpeed="5"/>
    <vehicle id="up_214" type="car" route="up" depart="568" departSpeed="5"/>
    <vehicle id="left_215" type="car" route="left" depart="569" departSpeed="5"/>
    <vehicle id="down_216" type="car" route="down" depart="571" departSpeed="5"/>
    <vehicle id="up_217" type="car" route="up" depart="574" departSpeed="5"/>
    <vehicle id="right_218" type="car" route="right" depart="578" departSpeed="5"/>
    <vehicle id="down_219" type="car" route="down" depart="579" departSpeed="5"/>
    <vehicle id="right_220" type="car" route="right" depart="585" departSpeed="5"/>
    <vehicle id="down_221" type="car" route="down" depart="586" departSpeed="5"/>
    <vehicle id="down_222" type="car" route="down" depart="587" departSpeed="5"/>
    <vehicle id="right_223" type="car" route="right" depart="589" departSpeed="5"/>
    <vehicle id="down_224" type="car" route="down" depart="589" departSpeed="5"/>
    <vehicle id="up_225" type="car" route="up" depart="592" departSpeed="5"/>
    <vehicle id="up_226" type="car" route="up" depart="593" departSpeed="5"/>
    <vehicle id="right_227" type="car" route="right" depart="595" departSpeed="5"/>
    <vehicle id="right_228" type="car" route="right" depart="601" departSpeed="5"/>
    <vehicle id="left_229" type="car" route="left" depart="602" departSpeed="5"/>
    <vehicle id="left_230" type="car" route="left" depart="604" departSpeed="5"/>
    <vehicle id="up_231" type="car" route="up" depart="606" departSpeed="5"/>
    <vehicle id="left_232" type="car" route="left" depart="608" departSpeed="5"/>
    <vehicle id="left_233" type="car" route="left" depart="609" departSpeed="5"/>
    <vehicle id="up_234" type="car" route="up" depart="610" departSpeed="5"/>
    <vehicle id="down_235" type="car" route="down" depart="615" departSpeed="5"/>
    <vehicle id="down_236" type="car" route="down" depart="617" departSpeed="5"/>
    <vehicle id="right_237" type="car" route="right" depart="621" departSpeed="5"/>
    <vehicle id="right_238" type="car" route="right" depart="628" departSpeed="5"/>
    <vehicle id="up_239" type="car" route="up" depart="630" departSpeed="5"/>
    <vehicle id="right_240" type="car" route="right" depart="631" departSpeed="5"/>
    <vehicle id="up_241" type="car" route="up" depart="633" departSpeed="5"/>
    <vehicle id="right_242" type="car" route="right" depart="641" departSpeed="5"/>
    <vehicle id="right_243" type="car" route="right" depart="649" departSpeed="5"/>
    <vehicle id="left_244" type="car" route="left" depart="649" departSpeed="5"/>
    <vehicle id="up_245" type="car" route="up" depart="650" departSpeed="5"/>
    <vehicle id="right_246" type="car" route="right" depart="652" departSpeed="5"/>
    <vehicle id="right_247" type="car" route="right" depart="653" departSpeed="5"/>
    <vehicle id="left_248" type="car" route="left" depart="653" departSpeed="5"/>
    <vehicle id="down_249" type="car" route="down" depart="655" departSpeed="5"/>
    <vehicle id="up_250" type="car" route="up" depart="658" departSpeed="5"/>
    <vehicle id="up_251" type="car" route="up" depart="661" departSpeed="5"/>
    <vehicle id="down_252" type="car" route="down" depart="663" departSpeed="5"/>
    <vehicle id="down_253" type="car" route="down" depart="664" departSpeed="5"/>
    <vehicle id="up_254" type="car" route="up" depart="664" departSpeed="5"/>
    <vehicle id="up_255" type="car" route="up" depart="666" departSpeed="5"/>
    <vehicle id="down_256" type="car" route="down" depart="670" departSpeed="5"/>
    <vehicle id="left_257" type="car" route="left" depart="673" departSpeed="5"/>
    <vehicle id="down_258" type="car" route="down" depart="675" departSpeed="5"/>
    <vehicle id="up_259" type="car" route="up" depart="677" departSpeed="5"/>
    <vehicle id="up_260" type="car" route="up" depart="678" departSpeed="5"/>
    <vehicle id="left_261" type="car" route="left" depart="679" departSpeed="5"/>
    <vehicle id="left_262" type="car" route="left" depart="683" departSpeed="5"/>
    <vehicle id="up_263" type="car" route="up" depart="683" departSpeed="5"/>
    <vehicle id="up_264" type="car" route="up" depart="691" departSpeed="5"/>
    <vehicle id="up_265" type="car" route="up" depart="692" departSpeed="5"/>
    <vehicle id="right_266" type="car" route="right" depart="694" departSpeed="5"/>
    <vehicle id="right_267" type="car" route="right" depart="695" departSpeed="5"/>
    <vehicle id="up_268" type="car" route="up" depart="696" departSpeed="5"/>
    <vehicle id="up_269" type="car" route="up" depart="698" departSpeed="5"/>
    <vehicle id="down_270" type="car" route="down" depart="705" departSpeed="5"/>
    <vehicle id="up_271" type="car" route="up" depart="706" departSpeed="5"/>
    <vehicle id="left_272" type="car" route="left" depart="713" departSpeed="5"/>
    <vehicle id="down_273" type="car" route="down" depart="714" departSpeed="5"/>
    <vehicle id="right_274" type="car" route="right" depart="717" departSpeed="5"/>
    <vehicle id="left_275" type="car" route="left" depart="717" departSpeed="5"/>
    <vehicle id="up_276" type="car" route="up" depart="717" departSpeed="5"/>
    <vehicle id="left_277" type="car" route="left" depart="718" departSpeed="5"/>
    <vehicle id="right_278" type="car" route="right" depart="721" departSpeed="5"/>
    <vehicle id="left_279" type="car" route="left" depart="721" departSpeed="5"/>
    <vehicle id="down_280" type="car" route="down" depart="721" departSpeed="5"/>
    <vehicle id="down_281" type="car" route="down" depart="725" departSpeed="5"/>
    <vehicle id="left_282" type="car" route="left" depart="726" departSpeed="5"/>
    <vehicle id="down_283" type="car" route="down" depart="726" departSpeed="5"/>
    <vehicle id="left_284" type="car" route="left" depart="727" departSpeed="5"/>
    <vehicle id="down_285" type="car" route="down" depart="728" departSpeed="5"/>
    <vehicle id="left_286" type="car" route="left" depart="732" departSpeed="5"/>
    <vehicle id="left_287" type="car" route="left" depart="733" departSpeed="5"/>
    <vehicle id="down_288" type="car" route="down" depart="734" departSpeed="5"/>
    <vehicle id="up_289" type="car" route="up" depart="734" departSpeed="5"/>
    <vehicle id="down_290" type="car" route="down" depart="735" departSpeed="5"/>
    <vehicle id="left_291" type="car" route="left" depart="737" departSpeed="5"/>
    <vehicle id="right_292" type="car" route="right" depart="739" departSpeed="5"/>
    <vehicle id="left_293" type="car" route="left" depart="746" departSpeed="5"/>
    <vehicle id="right_294" type="car" route="right" depart="747" departSpeed="5"/>
    <vehicle id="up_295" type="car" route="up" depart="748" departSpeed="5"/>
    <vehicle id="down_296" type="car" route="down" depart="751" departSpeed="5"/>
    <vehicle id="up_297" type="car" route="up" depart="751" departSpeed="5"/>
    <vehicle id="down_298" type="car" route="down" depart="753" departSpeed="5"/>
    <vehicle id="up_299" type="car" route="up" depart="757" departSpeed="5"/>
    <vehicle id="right_300" type="car" route="right" depart="758" departSpeed="5"/>
    <vehicle id="down_301" type="car" route="down" depart="760" departSpeed="5"/>
    <vehicle id="right_302" type="car" route="right" depart="761" departSpeed="5"/>
    <vehicle id="right_303" type="car" route="right" depart="762" departSpeed="5"/>
    <vehicle id="down_304" type="car" route="down" depart="765" departSpeed="5"/>
    <vehicle id="left_305" type="car" route="left" depart="767" departSpeed="5"/>
    <vehicle id="right_306" type="car" route="right" depart="770" departSpeed="5"/>
    <vehicle id="down_307" type="car" route="down" depart="775" departSpeed="5"/>
    <vehicle id="right_308" type="car" route="right" depart="776" departSpeed="5"/>
    <vehicle id="up_309" type="car" route="up" depart="779" departSpeed="5"/>
    <vehicle id="down_310" type="car" route="down" depart="781" departSpeed="5"/>
    <vehicle id="up_311" type="car" route="up" depart="784" departSpeed="5"/>
    <vehicle id="left_312" type="car" route="left" depart="786" departSpeed="5"/>
    <vehicle id="down_313" type="car" route="down" depart="787" departSpeed="5"/>
    <vehicle id="right_314" type="car" route="right" depart="790" departSpeed="5"/>
    <vehicle id="left_315" type="car" route="left" depart="794" departSpeed="5"/>
    <vehicle id="right_316" type="car" route="right" depart="797" departSpeed="5"/>
    <vehicle id="up_317" type="car" route="up" depart="799" departSpeed="5"/>
    <vehicle id="right_318" type="car" route="right" depart="801" departSpeed="5"/>
    <vehicle id="left_319" type="car" route="left" depart="806" departSpeed="5"/>
    <vehicle id="left_320" type="car" route="left" depart="808" departSpeed="5"/>
    <vehicle id="down_321" type="car" route="down" depart="811" departSpeed="5"/>
    <vehicle id="up_322" type="car" route="up" depart="811" departSpeed="5"/>
    <vehicle id="down_323" type="car" route="down" depart="812" departSpeed="5"/>
    <vehicle id="up_324" type="car" route="up" depart="812" departSpeed="5"/>
    <vehicle id="right_325" type="car" route="right" depart="818" departSpeed="5"/>
    <vehicle id="right_326" type="car" route="right" depart="819" departSpeed="5"/>
    <vehicle id="right_327" type="car" route="right" depart="824" departSpeed="5"/>
    <vehicle id="down_328" type="car" route="down" depart="825" departSpeed="5"/>
    <vehicle id="right_329" type="car" route="right" depart="826" departSpeed="5"/>
    <vehicle id="left_330" type="car" route="left" depart="826" departSpeed="5"/>
    <vehicle id="left_331" type="car" route="left" depart="827" departSpeed="5"/>
    <vehicle id="up_332" type="car" route="up" depart="830" departSpeed="5"/>
    <vehicle id="left_333" type="car" route="left" depart="833" departSpeed="5"/>
    <vehicle id="down_334" type="car" route="down" depart="833" departSpeed="5"/>
    <vehicle id="right_335" type="car" route="right" depart="835" departSpeed="5"/>
    <vehicle id="right_336" type="car" route="right" depart="836" departSpeed="5"/>
    <vehicle id="down_337" type="car" route="down" depart="836" departSpeed="5"/>
    <vehicle id="up_338" type="car" route="up" depart="838" departSpeed="5"/>
    <vehicle id="right_339" type="car" route="right" depart="839" departSpeed="5"/>
    <vehicle id="left_340" type="car" route="left" depart="840" departSpeed="5"/>
    <vehicle id="right_341" type="car" route="right" depart="842" departSpeed="5"/>
    <vehicle id="left_342" type="car" route="left" depart="842" departSpeed="5"/>
    <vehicle id="up_343" type="car" route="up" depart="842" departSpeed="5"/>
    <vehicle id="up_344" type="car" route="up" depart="843" departSpeed="5"/>
    <vehicle id="up_345" type="car" route="up" depart="847" departSpeed="5"/>
    <vehicle id="down_346" type="car" route="down" depart="848" departSpeed="5"/>
    <vehicle id="left_347" type="car" route="left" depart="852" departSpeed="5"/>
    <vehicle id="right_348" type="car" route="right" depart="854" departSpeed="5"/>
    <vehicle id="down_349" type="car" route="down" depart="854" departSpeed="5"/>
    <vehicle id="left_350" type="car" route="left" depart="857" departSpeed="5"/>
    <vehicle id="up_351" type="car" route="up" depart="859" departSpeed="5"/>
    <vehicle id="up_352" type="car" route="up" depart="865" departSpeed="5"/>
    <vehicle id="right_353" type="car" route="right" depart="866" departSpeed="5"/>
    <vehicle id="left_354" type="car" route="left" depart="868" departSpeed="5"/>
    <vehicle id="up_355" type="car" route="up" depart="872" departSpeed="5"/>
    <vehicle id="right_356" type="car" route="right" depart="873" departSpeed="5"/>
    <vehicle id="left_357" type="car" route="left" depart="874" departSpeed="5"/>
    <vehicle id="up_358" type="car" route="up" depart="875" departSpeed="5"/>
    <vehicle id="right_359" type="car" route="right" depart="876" departSpeed="5"/>
    <vehicle id="down_360" type="car" route="down" depart="876" departSpeed="5"/>
    <vehicle id="up_361" type="car" route="up" depart="876" departSpeed="5"/>
    <vehicle id="left_362" type="car" route="left" depart="882" departSpeed="5"/>
    <vehicle id="right_363" type="car" route="right" depart="884" departSpeed="5"/>
    <vehicle id="right_364" type="car" route="right" depart="885" departSpeed="5"/>
    <vehicle id="left_365" type="car" route="left" depart="885" departSpeed="5"/>