<routes>
                               <vType id="car" accel="1.0" decel="4.5" sigma="0.7" length="5" minGap="3" maxSpeed="15" guiShape="passenger"/>

                               <route id="WETop" edges="5i 1i 2o" />
                               <route id="EWTop" edges="2i 1o 5o" />
                               <route id="NS" edges="4i 3o 8i" />
                               <route id="SN" edges="8o 3i 4o" />
                               <route id="WEBottom" edges="7o 11o" />
                               <route id="EWBottom" edges="11i 7i" />

                               <route id="t2" edges="8o 7i" />
                               <route id="t3" edges="4i 1o 6i" />
                               <route id="t4" edges="7o 3i 2o" />
                               <route id="t5" edges="6o 1i 4o" />
                               <route id="t6" edges="5i 1i 3o 11o" />
                               
    <vehicle id="WETop_0" type="car" route="WETop" depart="0" departSpeed="5"/>
    <vehicle id="WETop_1" type="car" route="WETop" depart="2" departSpeed="5"/>
    <vehicle id="t4_2" type="car" route="t4" depart="3" departSpeed="5"/>
    <vehicle id="t5_3" type="car" route="t5" depart="4" departSpeed="5"/>
    <vehicle id="WETop_4" type="car" route="WETop" depart="5" departSpeed="5"/>
    <vehicle id="EWTop_5" type="car" route="EWTop" depart="5" departSpeed="5"/>
    <vehicle id="EWTop_6" type="car" route="EWTop" depart="7" departSpeed="5"/>
    <vehicle id="WEBottom_7" type="car" route="WEBottom" depart="8" departSpeed="5"/>
    <vehicle id="t2_8" type="car" route="t2" depart="8" departSpeed="5"/>
    <vehicle id="t5_9" type="car" route="t5" depart="8" departSpeed="5"/>
    <vehicle id="t3_10" type="car" route="t3" depart="10" departSpeed="5"/>
    <vehicle id="t4_11" type="car" route="t4" depart="10" departSpeed="5"/>
    <vehicle id="t6_12" type="car" route="t6" depart="10" departSpeed="5"/>
    <vehicle id="t2_13" type="car" route="t2" depart="11" departSpeed="5"/>
    <vehicle id="t4_14" type="car" route="t4" depart="11" departSpeed="5"/>
    <vehicle id="EWBottom_15" type="car" route="EWBottom" depart="13" departSpeed="5"/>
    <vehicle id="t5_16" type="car" route="t5" depart="14" departSpeed="5"/>
    <vehicle id="t2_17" type="car" route="t2" depart="15" departSpeed="5"/>
    <vehicle id="SN_18" type="car" route="SN" depart="16" departSpeed="5"/>
    <vehicle id="t2_19" type="car" route="t2" depart="17" departSpeed="5"/>
    <vehicle id="t3_20" type="car" route="t3" depart="17" departSpeed="5"/>
    <vehicle id="t3_21" type="car" route="t3" depart="20" departSpeed="5"/>
    <vehicle id="WETop_22" type="car" route="WETop" depart="24" departSpeed="5"/>
    <vehicle id="WEBottom_23" type="car" route="WEBottom" depart="25" departSpeed="5"/>
    <vehicle id="SN_24" type="car" route="SN" depart="25" departSpeed="5"/>
    <vehicle id="WETop_25" type="car" route="WETop" depart="26" departSpeed="5"/>
    <vehicle id="WEBottom_26" type="car" route="WEBottom" depart="26" departSpeed="5"/>
    <vehicle id="t5_27" type="car" route="t5" depart="26" departSpeed="5"/>
    <vehicle id="WEBottom_28" type="car" route="WEBottom" depart="27" departSpeed="5"/>
    <vehicle id="t2_29" type="car" route="t2" depart="27" departSpeed="5"/>
    <vehicle id="t4_30" type="car" route="t4" depart="27" departSpeed="5"/>
    <vehicle id="EWTop_31" type="car" route="EWTop" depart="28" departSpeed="5"/>
    <vehicle id="t2_32" type="car" route="t2" depart="28" departSpeed="5"/>
    <vehicle id="t3_33" type="car" route="t3" depart="29" departSpeed="5"/>
    <vehicle id="EWBottom_34" type="car" route="EWBottom" depart="30" departSpeed="5"/>
    <vehicle id="EWBottom_35" type="car" route="EWBottom" depart="31" departSpeed="5"/>
    <vehicle id="SN_36" type="car" route="SN" depart="31" departSpeed="5"/>
    <vehicle id="SN_37" type="car" route="SN" depart="32" departSpeed="5"/>
    <vehicle id="EWBottom_38" type="car" route="EWBottom" depart="33" departSpeed="5"/>
    <vehicle id="t3_39" type="car" route="t3" depart="33" departSpeed="5"/>
    <vehicle id="t6_40" type="car" route="t6" depart="33" departSpeed="5"/>
    <vehicle id="WETop_41" type="car" route="WETop" depart="34" departSpeed="5"/>
    <vehicle id="WEBottom_42" type="car" route="WEBottom" depart="34" departSpeed="5"/>
    <vehicle id="SN_43" type="car" route="SN" depart="34" departSpeed="5"/>
    <vehicle id="WEBottom_44" type="car" route="WEBottom" depart="35" departSpeed="5"/>
    <vehicle id="SN_45" type="car" route="SN" depart="37" departSpeed="5"/>
    <vehicle id="EWBottom_46" type="car" route="EWBottom" depart="40" departSpeed="5"/>
    <vehicle id="NS_47" type="car" route="NS" depart="40" departSpeed="5"/>
    <vehicle id="t3_48" type="car" route="t3" depart="40" departSpeed="5"/>
    <vehicle id="t2_49" type="car" route="t2" depart="41" departSpeed="5"/>
    <vehicle id="t4_50" type="car" route="t4" depart="41" departSpeed="5"/>
    <vehicle id="EWTop_51" type="car" route="EWTop" depart="42" departSpeed="5"/>
    <vehicle id="WETop_52" type="car" route="WETop" depart="43" departSpeed="5"/>
    <vehicle id="NS_53" type="car" route="NS" depart="43" departSpeed="5"/>
    <vehicle id="WEBottom_54" type="car" route="WEBottom" depart="44" departSpeed="5"/>
    <vehicle id="NS_55" type="car" route="NS" depart="44" departSpeed="5"/>
    <vehicle id="WETop_56" type="car" route="WETop" depart="48" departSpeed="5"/>
    <vehicle id="NS_57" type="car" route="NS" depart="48" departSpeed="5"/>
    <vehicle id="t2_58" type="car" route="t2" depart="48" departSpeed="5"/>
    <vehicle id="NS_59" type="car" route="NS" depart="50" departSpeed="5"/>
    <vehicle id="EWTop_60" type="car" route="EWTop" depart="51" departSpeed="5"/>
    <vehicle id="t5_61" type="car" route="t5" depart="51" departSpeed="5"/>
    <vehicle id="WETop_62" type="car" route="WETop" depart="52" departSpeed="5"/>
    <vehicle id="SN_63" type="car" route="SN" depart="52" departSpeed="5"/>
    <vehicle id="EWTop_64" type="car" route="EWTop" depart="53" departSpeed="5"/>
    <vehicle id="EWBottom_65" type="car" route="EWBottom" depart="53" departSpeed="5"/>
    <vehicle id="t2_66" type="car" route="t2" depart="53" departSpeed="5"/>
    <vehicle id="t3_67" type="car" route="t3" depart="53" departSpeed="5"/>
    <vehicle id="t3_68" type="car" route="t3" depart="55" departSpeed="5"/>
    <vehicle id="t4_69" type="car" route="t4" depart="55" departSpeed="5"/>
    <vehicle id="NS_70" type="car" route="NS" depart="56" departSpeed="5"/>
    <vehicle id="SN_71" type="car" route="SN" depart="57" departSpeed="5"/>
    <vehicle id="EWBottom_72" type="car" route="EWBottom" depart="59" departSpeed="5"/>
    <vehicle id="EWBottom_73" type="car" route="EWBottom" depart="60" departSpeed="5"/>
    <vehicle id="EWTop_74" type="car" route="EWTop" depart="61" departSpeed="5"/>
    <vehicle id="SN_75" type="car" route="SN" depart="61" departSpeed="5"/>
    <vehicle id="SN_76" type="car" route="SN" depart="62" departSpeed="5"/>
    <vehicle id="t4_77" type="car" route="t4" depart="62" departSpeed="5"/>
    <vehicle id="NS_78" type="car" route="NS" depart="63" departSpeed="5"/>
    <vehicle id="EWTop_79" type="car" route="EWTop" depart="64" departSpeed="5"/>
    <vehicle id="EWBottom_80" type="car" route="EWBottom" depart="64" departSpeed="5"/>
    <vehicle id="t3_81" type="car" route="t3" depart="64" departSpeed="5"/>
    <vehicle id="t5_82" type="car" route="t5" depart="68" departSpeed="5"/>
    <vehicle id="WETop_83" type="car" route="WETop" depart="69" departSpeed="5"/>
    <vehicle id="t5_84" type="car" route="t5" depart="69" departSpeed="5"/>
    <vehicle id="WEBottom_85" type="car" route="WEBottom" depart="71" departSpeed="5"/>
    <vehicle id="EWBottom_86" type="car" route="EWBottom" depart="71" departSpeed="5"/>
    <vehicle id="SN_87" type="car" route="SN" depart="74" departSpeed="5"/>
    <vehicle id="SN_88" type="car" route="SN" depart="75" departSpeed="5"/>
    <vehicle id="t6_89" type="car" route="t6" depart="75" departSpeed="5"/>
    <vehicle id="NS_90" type="car" route="NS" depart="76" departSpeed="5"/>
    <vehicle id="t2_91" type="car" route="t2" depart="76" departSpeed="5"/>
    <vehicle id="t3_92" type="car" route="t3" depart="76" departSpeed="5"/>
    <vehicle id="SN_93" type="car" route="SN" depart="77" departSpeed="5"/>
    <vehicle id="EWTop_94" type="car" route="EWTop" depart="79" departSpeed="5"/>
    <vehicle id="EWBottom_95" type="car" route="EWBottom" depart="80" departSpeed="5"/>
    <vehicle id="EWTop_96" type="car" route="EWTop" depart="81" departSpeed="5"/>
    <vehicle id="t6_97" type="car" route="t6" depart="81" departSpeed="5"/>
    <vehicle id="SN_98" type="car" route="SN" depart="82" departSpeed="5"/>
    <vehicle id="t3_99" type="car" route="t3" depart="82" departSpeed="5"/>
    <vehicle id="WETop_100" type="car" route="WETop" depart="83" departSpeed="5"/>
    <vehicle id="t2_101" type="car" route="t2" depart="83" departSpeed="5"/>
    <vehicle id="t4_102" type="car" route="t4" depart="83" departSpeed="5"/>
    <vehicle id="WETop_103" type="car" route="WETop" depart="84" departSpeed="5"/>
    <vehicle id="t4_104" type="car" route="t4" depart="84" departSpeed="5"/>
    <vehicle id="NS_105" type="car" route="NS" depart="85" departSpeed="5"/>
    <vehicle id="t5_106" type="car" route="t5" depart="85" departSpeed="5"/>
    <vehicle id="NS_107" type="car" route="NS" depart="86" departSpeed="5"/>
    <vehicle id="t2_108" type="car" route="t2" depart="91" departSpeed="5"/>
    <vehicle id="t4_109" type="car" route="t4" depart="92" departSpeed="5"/>
    <vehicle id="t3_110" type="car" route="t3" depart="94" departSpeed="5"/>
    <vehicle id="t4_111" type="car" route="t4" depart="94" departSpeed="5"/>
    <vehicle id="t2_112" type="car" route="t2" depart="96" departSpeed="5"/>
    <vehicle id="EWTop_113" type="car" route="EWTop" depart="98" departSpeed="5"/>
    <vehicle id="t5_114" type="car" route="t5" depart="98" departSpeed="5"/>
    <vehicle id="t6_115" type="car" route="t6" depart="98" departSpeed="5"/>
    <vehicle id="WETop_116" type="car" route="WETop" depart="99" departSpeed="5"/>
    <vehicle id="SN_117" type="car" route="SN" depart="99" departSpeed="5"/>
    <vehicle id="t2_118" type="car" route="t2" depart="99" departSpeed="5"/>
    <vehicle id="WETop_119" type="car" route="WETop" depart="101" departSpeed="5"/>
    <vehicle id="t3_120" type="car" route="t3" depart="101" departSpeed="5"/>
    <vehicle id="EWBottom_121" type="car" route="EWBottom" depart="102" departSpeed="5"/>
    <vehicle id="NS_122" type="car" route="NS" depart="103" departSpeed="5"/>
    <vehicle id="t2_123" type="car" route="t2" depart="103" departSpeed="5"/>
    <vehicle id="t4_124" type="car" route="t4" depart="103" departSpeed="5"/>
    <vehicle id="t5_125" type="car" route="t5" depart="103" departSpeed="5"/>
    <vehicle id="WETop_126" type="car" route="WETop" depart="104" departSpeed="5"/>
    <vehicle id="t3_127" type="car" route="t3" depart="105" departSpeed="5"/>
    <vehicle id="EWBottom_128" type="car" route="EWBottom" depart="106" departSpeed="5"/>
    <vehicle id="EWTop_129" type="car" route="EWTop" depart="107" departSpeed="5"/>
    <vehicle id="t3_130" type="car" route="t3" depart="107" departSpeed="5"/>
    <vehicle id="EWTop_131" type="car" route="EWTop" depart="108" departSpeed="5"/>
    <vehicle id="t3_132" type="car" route="t3" depart="108" departSpeed="5"/>
    <vehicle id="EWTop_133" type="car" route="EWTop" depart="109" departSpeed="5"/>
    <vehicle id="WETop_134" type="car" route="WETop" depart="112" departSpeed="5"/>
    <vehicle id="WETop_135" type="car" route="WETop" depart="114" departSpeed="5"/>
    <vehicle id="t5_136" type="car" route="t5" depart="115" departSpeed="5"/>
    <vehicle id="t4_137" type="car" route="t4" depart="116" departSpeed="5"/>
    <vehicle id="EWBottom_138" type="car" route="EWBottom" depart="117" departSpeed="5"/>
    <vehicle id="t2_139" type="car" route="t2" depart="118" departSpeed="5"/>
    <vehicle id="NS_140" type="car" route="NS" depart="120" departSpeed="5"/>
    <vehicle id="EWTop_141" type="car" route="EWTop" depart="121" departSpeed="5"/>
    <vehicle id="t4_142" type="car" route="t4" depart="121" departSpeed="5"/>
    <vehicle id="WETop_143" type="car" route="WETop" depart="122" departSpeed="5"/>
    <vehicle id="SN_144" type="car" route="SN" depart="122" departSpeed="5"/>
    <vehicle id="t5_145" type="car" route="t5" depart="123" departSpeed="5"/>
    <vehicle id="EWBottom_146" type="car" route="EWBottom" depart="124" departSpeed="5"/>
    <vehicle id="t2_147" type="car" route="t2" depart="125" departSpeed="5"/>
    <vehicle id="t3_148" type="car" route="t3" depart="125" departSpeed="5"/>
    <vehicle id="t4_149" type="car" route="t4" depart="125" departSpeed="5"/>
    <vehicle id="EWBottom_150" type="car" route="EWBottom" depart="126" departSpeed="5"/>
    <vehicle id="NS_151" type="car" route="NS" depart="126" departSpeed="5"/>
    <vehicle id="WEBottom_152" type="car" route="WEBottom" depart="127" departSpeed="5"/>
    <vehicle id="t5_153" type="car" route="t5" depart="127" departSpeed="5"/>
    <vehicle id="t6_154" type="car" route="t6" depart="128" departSpeed="5"/>
    <vehicle id="NS_155" type="car" route="NS" depart="129" departSpeed="5"/>
    <vehicle id="WEBottom_156" type="car" route="WEBottom" depart="131" departSpeed="5"/>
    <vehicle id="WETop_157" type="car" route="WETop" depart="133" departSpeed="5"/>
    <vehicle id="SN_158" type="car" route="SN" depart="133" departSpeed="5"/>
    <vehicle id="EWBottom_159" type="car" route="EWBottom" depart="134" departSpeed="5"/>
    <vehicle id="SN_160" type="car" route="SN" depart="134" departSpeed="5"/>
    <vehicle id="t2_161" type="car" route="t2" depart="135" departSpeed="5"/>
    <vehicle id="t4_162" type="car" route="t4" depart="135" departSpeed="5"/>
    <vehicle id="WETop_163" type="car" route="WETop" depart="137" departSpeed="5"/>
    <vehicle id="t4_164" type="car" route="t4" depart="137" departSpeed="5"/>
    <vehicle id="t5_165" type="car" route="t5" depart="137" departSpeed="5"/>
    <vehicle id="EWBottom_166" type="car" route="EWBottom" depart="138" departSpeed="5"/>
    <vehicle id="WEBottom_167" type="car" route="WEBottom" depart="139" departSpeed="5"/>
    <vehicle id="NS_168" type="car" route="NS" depart="139" departSpeed="5"/>
    <vehicle id="t2_169" type="car" route="t2" depart="139" departSpeed="5"/>
    <vehicle id="EWBottom_170" type="car" route="EWBottom" depart="140" departSpeed="5"/>
    <vehicle id="EWBottom_171" type="car" route="EWBottom" depart="141" departSpeed="5"/>
    <vehicle id="t4_172" type="car" route="t4" depart="141" departSpeed="5"/>
    <vehicle id="EWTop_173" type="car" route="EWTop" depart="142" departSpeed="5"/>
    <vehicle id="SN_174" type="car" route="SN" depart="142" departSpeed="5"/>
    <vehicle id="t5_175" type="car" route="t5" depart="142" departSpeed="5"/>
    <vehicle id="t3_176" type="car" route="t3" depart="143" departSpeed="5"/>
    <vehicle id="t6_177" type="car" route="t6" depart="143" departSpeed="5"/>
    <vehicle id="WEBottom_178" type="car" route="WEBottom" depart="144" departSpeed="5"/>
    <vehicle id="t2_179" type="car" route="t2" depart="144" departSpeed="5"/>
    <vehicle id="t6_180" type="car" route="t6" depart="144" departSpeed="5"/>
    <vehicle id="NS_181" type="car" route="NS" depart="145" departSpeed="5"/>
    <vehicle id="SN_182" type="car" route="SN" depart="145" departSpeed="5"/>
    <vehicle id="NS_183" type="car" route="NS" depart="146" departSpeed="5"/>
    <vehicle id="t5_184" type="car" route="t5" depart="146" departSpeed="5"/>
    <vehicle id="EWBottom_185" type="car" route="EWBottom" depart="147" departSpeed="5"/>
    <vehicle id="WEBottom_186" type="car" route="WEBottom" depart="148" departSpeed="5"/>
    <vehicle id="t2_187" type="car" route="t2" depart="148" departSpeed="5"/>
    <vehicle id="t6_188" type="car" route="t6" depart="149" departSpeed="5"/>
    <vehicle id="WETop_189" type="car" route="WETop" depart="150" departSpeed="5"/>
    <vehicle id="t4_190" type="car" route="t4" depart="151" departSpeed="5"/>
    <vehicle id="t5_191" type="car" route="t5" depart="152" departSpeed="5"/>
    <vehicle id="t6_192" type="car" route="t6" depart="152" departSpeed="5"/>
    <vehicle id="t4_193" type="car" route="t4" depart="153" departSpeed="5"/>
    <vehicle id="WETop_194" type="car" route="WETop" depart="160" departSpeed="5"/>
    <vehicle id="t2_195" type="car" route="t2" depart="163" departSpeed="5"/>
    <vehicle id="t6_196" type="car" route="t6" depart="164" departSpeed="5"/>
    <vehicle id="EWTop_197" type="car" route="EWTop" depart="165" departSpeed="5"/>
    <vehicle id="EWBottom_198" type="car" route="EWBottom" depart="167" departSpeed="5"/>
    <vehicle id="t2_199" type="car" route="t2" depart="167" departSpeed="5"/>
    <vehicle id="t5_200" type="car" route="t5" depart="167" departSpeed="5"/>
    <vehicle id="WETop_201" type="car" route="WETop" depart="169" departSpeed="5"/>
    <vehicle id="t2_202" type="car" route="t2" depart="169" departSpeed="5"/>
    <vehicle id="WETop_203" type="car" route="WETop" depart="170" departSpeed="5"/>
    <vehicle id="WEBottom_204" type="car" route="WEBottom" depart="172" departSpeed="5"/>
    <vehicle id="t3_205" type="car" route="t3" depart="172" departSpeed="5"/>
    <vehicle id="t4_206" type="car" route="t4" depart="172" departSpeed="5"/>
    <vehicle id="EWBottom_207" type="car" route="EWBottom" depart="173" departSpeed="5"/>
    <vehicle id="t4_208" type="car" route="t4" depart="173" departSpeed="5"/>
    <vehicle id="t6_209" type="car" route="t6" depart="173" departSpeed="5"/>
    <vehicle id="WETop_210" type="car" route="WETop" depart="176" departSpeed="5"/>
    <vehicle id="t4_211" type="car" route="t4" depart="176" departSpeed="5"/>
    <vehicle id="WETop_212" type="car" route="WETop" depart="178" departSpeed="5"/>
    <vehicle id="t2_213" type="car" route="t2" depart="178" departSpeed="5"/>
    <vehicle id="t3_214" type="car" route="t3" depart="178" departSpeed="5"/>
    <vehicle id="t4_215" type="car" route="t4" depart="180" departSpeed="5"/>
    <vehicle id="t6_216" type="car" route="t6" depart="181" departSpeed="5"/>
    <vehicle id="WEBottom_217" type="car" route="WEBottom" depart="182" departSpeed="5"/>
    <vehicle id="t3_218" type="car" route="t3" depart="182" departSpeed="5"/>
    <vehicle id="EWBottom_219" type="car" route="EWBottom" depart="184" departSpeed="5"/>
    <vehicle id="EWBottom_220" type="car" route="EWBottom" depart="185" departSpeed="5"/>
    <vehicle id="SN_221" type="car" route="SN" depart="185" departSpeed="5"/>
    <vehicle id="EWTop_222" type="car" route="EWTop" depart="186" departSpeed="5"/>
    <vehicle id="NS_223" type="car" route="NS" depart="187" departSpeed="5"/>
    <vehicle id="t2_224" type="car" route="t2" depart="187" departSpeed="5"/>
    <vehicle id="t4_225" type="car" route="t4" depart="187" departSpeed="5"/>
    <vehicle id="NS_226" type="car" route="NS" depart="189" departSpeed="5"/>
    <vehicle id="WEBottom_227" type="car" route="WEBottom" depart="192" departSpeed="5"/>
    <vehicle id="t5_228" type="car" route="t5" depart="192" departSpeed="5"/>
    <vehicle id="SN_229" type="car" route="SN" depart="193" departSpeed="5"/>
    <vehicle id="t5_230" type="car" route="t5" depart="193" departSpeed="5"/>
    <vehicle id="t5_231" type="car" route="t5" depart="194" departSpeed="5"/>
    <vehicle id="WEBottom_232" type="car" route="WEBottom" depart="195" departSpeed="5"/>
    <vehicle id="EWBottom_233" type="car" route="EWBottom" depart="195" departSpeed="5"/>
    <vehicle id="t6_234" type="car" route="t6" depart="195" departSpeed="5"/>
    <vehicle id="t3_235" type="car" route="t3" depart="196" departSpeed="5"/>
    <vehicle id="NS_236" type="car" route="NS" depart="197" departSpeed="5"/>
    <vehicle id="SN_237" type="car" route="SN" depart="197" departSpeed="5"/>
    <vehicle id="SN_238" type="car" route="SN" depart="199" departSpeed="5"/>
    <vehicle id="WETop_239" type="car" route="WETop" depart="200" departSpeed="5"/>
    <vehicle id="t2_240" type="car" route="t2" depart="201" departSpeed="5"/>
    <vehicle id="t6_241" type="car" route="t6" depart="201" departSpeed="5"/>
    <vehicle id="WEBottom_242" type="car" route="WEBottom" depart="202" departSpeed="5"/>
    <vehicle id="t6_243" type="car" route="t6" depart="202" departSpeed="5"/>
    <vehicle id="WETop_244" type="car" route="WETop" depart="203" departSpeed="5"/>
    <vehicle id="WEBottom_245" type="car" route="WEBottom" depart="203" departSpeed="5"/>
    <vehicle id="t4_246" type="car" route="t4" depart="203" departSpeed="5"/>
    <vehicle id="t6_247" type="car" route="t6" depart="203" departSpeed="5"/>
    <vehicle id="WETop_248" type="car" route="WETop" depart="204" departSpeed="5"/>
    <vehicle id="SN_249" type="car" route="SN" depart="204" departSpeed="5"/>
    <vehicle id="t3_250" type="car" route="t3" depart="204" departSpeed="5"/>
    <vehicle id="t3_251" type="car" route="t3" depart="205" departSpeed="5"/>
    <vehicle id="NS_252" type="car" route="NS" depart="206" departSpeed="5"/>
    <vehicle id="WEBottom_253" type="car" route="WEBottom" depart="207" departSpeed="5"/>
    <vehicle id="t3_254" type="car" route="t3" depart="208" departSpeed="5"/>
    <vehicle id="WETop_255" type="car" route="WETop" depart="209" departSpeed="5"/>
    <vehicle id="t3_256" type="car" route="t3" depart="209" departSpeed="5"/>
    <vehicle id="t4_257" type="car" route="t4" depart="209" departSpeed="5"/>
    <vehicle id="SN_258" type="car" route="SN" depart="210" departSpeed="5"/>
    <vehicle id="t5_259" type="car" route="t5" depart="210" departSpeed="5"/>
    <vehicle id="t4_260" type="car" route="t4" depart="211" departSpeed="5"/>
    <vehicle id="NS_261" type="car" route="NS" depart="212" departSpeed="5"/>
    <vehicle id="t6_262" type="car" route="t6" depart="212" departSpeed="5"/>
    <vehicle id="t3_263" type="car" route="t3" depart="213" departSpeed="5"/>
    <vehicle id="t4_264" type="car" route="t4" depart="213" departSpeed="5"/>
    <vehicle id="EWBottom_265" type="car" route="EWBottom" depart="215" departSpeed="5"/>
    <vehicle id="t6_266" type="car" route="t6" depart="215" departSpeed="5"/>
    <vehicle id="t6_267" type="car" route="t6" depart="217" departSpeed="5"/>
    <vehicle id="NS_268" type="car" route="NS" depart="218" departSpeed="5"/>
    <vehicle id="t5_269" type="car" route="t5" depart="219" departSpeed="5"/>
    <vehicle id="t6_270" type="car" route="t6" depart="219" departSpeed="5"/>
    <vehicle id="EWBottom_271" type="car" route="EWBottom" depart="221" departSpeed="5"/>
    <vehicle id="t5_272" type="car" route="t5" depart="222" departSpeed="5"/>
    <vehicle id="NS_273" type="car" route="NS" depart="223" departSpeed="5"/>
    <vehicle id="t2_274" type="car" route="t2" depart="224" departSpeed="5"/>
    <vehicle id="t6_275" type="car" route="t6" depart="224" departSpeed="5"/>
    <vehicle id="WEBottom_276" type="car" route="WEBottom" depart="227" departSpeed="5"/>
    <vehicle id="SN_277" type="car" route="SN" depart="227" departSpeed="5"/>
    <vehicle id="t5_278" type="car" route="t5" depart="227" departSpeed="5"/>
    <vehicle id="t5_279" type="car" route="t5" depart="228" departSpeed="5"/>
    <vehicle id="WEBottom_280" type="car" route="WEBottom" depart="229" departSpeed="5"/>
    <vehicle id="t3_281" type="car" route="t3" depart="229" departSpeed="5"/>
    <vehicle id="t4_282" type="car" route="t4" depart="229" departSpeed="5"/>
    <vehicle id="t6_283" type="car" route="t6" depart="229" departSpeed="5"/>
    <vehicle id="EWBottom_284" type="car" route="EWBottom" depart="230" departSpeed="5"/>
    <vehicle id="t3_285" type="car" route="t3" depart="232" departSpeed="5"/>
    <vehicle id="t4_286" type="car" route="t4" depart="232" departSpeed="5"/>
    <vehicle id="t5_287" type="car" route="t5" depart="233" departSpeed="5"/>
    <vehicle id="EWTop_288" type="car" route="EWTop" depart="234" departSpeed="5"/>
    <vehicle id="NS_289" type="car" route="NS" depart="234" departSpeed="5"/>
    <vehicle id="t2_290" type="car" route="t2" depart="234" departSpeed="5"/>
    <vehicle id="WEBottom_291" type="car" route="WEBottom" depart="235" departSpeed="5"/>
    <vehicle id="WEBottom_292" type="car" route="WEBottom" depart="238" departSpeed="5"/>
    <vehicle id="WETop_293" type="car" route="WETop" depart="239" departSpeed="5"/>
    <vehicle id="t2_294" type="car" route="t2" depart="239" departSpeed="5"/>
    <vehicle id="EWTop_295" type="car" route="EWTop" depart="240" departSpeed="5"/>
    <vehicle id="t2_296" type="car" route="t2" depart="240" departSpeed="5"/>
    <vehicle id="EWBottom_297" type="car" route="EWBottom" depart="241" departSpeed="5"/>
    <vehicle id="t2_298" type="car" route="t2" depart="241" departSpeed="5"/>
    <vehicle id="t4_299" type="car" route="t4" depart="242" departSpeed="5"/>
    <vehicle id="t5_300" type="car" route="t5" depart="242" departSpeed="5"/>
    <vehicle id="EWBottom_301" type="car" route="EWBottom" depart="244" departSpeed="5"/>
    <vehicle id="t6_302" type="car" route="t6" depart="245" departSpeed="5"/>
    <vehicle id="EWBottom_303" type="car" route="EWBottom" depart="246" departSpeed="5"/>
    <vehicle id="t5_304" type="car" route="t5" depart="248" departSpeed="5"/>
    <vehicle id="t5_305" type="car" route="t5" depart="250" departSpeed="5"/>
    <vehicle id="NS_306" type="car" route="NS" depart="252" departSpeed="5"/>
    <vehicle id="EWTop_307" type="car" route="EWTop" depart="253" departSpeed="5"/>
    <vehicle id="EWBottom_308" type="car" route="EWBottom" depart="253" departSpeed="5"/>
    <vehicle id="t2_309" type="car" route="t2" depart="253" departSpeed="5"/>
    <vehicle id="t3_310" type="car" route="t3" depart="253" departSpeed="5"/>
    <vehicle id="t6_311" type="car" route="t6" depart="253" departSpeed="5"/>
    <vehicle id="t2_312" type="car" route="t2" depart="255" departSpeed="5"/>
    <vehicle id="EWTop_313" type="car" route="EWTop" depart="256" departSpeed="5"/>
    <vehicle id="SN_314" type="car" route="SN" depart="256" departSpeed="5"/>
    <vehicle id="t5_315" type="car" route="t5" depart="256" departSpeed="5"/>
    <vehicle id="t6_316" type="car" route="t6" depart="258" departSpeed="5"/>
    <vehicle id="EWTop_317" type="car" route="EWTop" depart="259" departSpeed="5"/>
    <vehicle id="SN_318" type="car" route="SN" depart="262" departSpeed="5"/>
    <vehicle id="t2_319" type="car" route="t2" depart="262" departSpeed="5"/>
    <vehicle id="WETop_320" type="car" route="WETop" depart="264" departSpeed="5"/>
    <vehicle id="t4_321" type="car" route="t4" depart="264" departSpeed="5"/>
    <vehicle id="t5_322" type="car" route="t5" depart="264" departSpeed="5"/>
    <vehicle id="EWBottom_323" type="car" route="EWBottom" depart="265" departSpeed="5"/>
    <vehicle id="NS_324" type="car" route="NS" depart="265" departSpeed="5"/>
    <vehicle id="WEBottom_325" type="car" route="WEBottom" depart="267" departSpeed="5"/>
    <vehicle id="t2_326" type="car" route="t2" depart="267" departSpeed="5"/>
    <vehicle id="t3_327" type="car" route="t3" depart="267" departSpeed="5"/>
    <vehicle id="NS_328" type="car" route="NS" depart="269" departSpeed="5"/>
    <vehicle id="t5_329" type="car" route="t5" depart="269" departSpeed="5"/>
    <vehicle id="SN_330" type="car" route="SN" depart="270" departSpeed="5"/>
    <vehicle id="t4_331" type="car" route="t4" depart="270" departSpeed="5"/>
    <vehicle id="t6_332" type="car" route="t6" depart="270" departSpeed="5"/>
    <vehicle id="t4_333" type="car" route="t4" depart="271" departSpeed="5"/>
    <vehicle id="t5_334" type="car" route="t5" depart="272" departSpeed="5"/>
    <vehicle id="EWBottom_335" type="car" route="EWBottom" depart="273" departSpeed="5"/>
    <vehicle id="t2_336" type="car" route="t2" depart="273" departSpeed="5"/>
    <vehicle id="NS_337" type="car" route="NS" depart="279" departSpeed="5"/>
    <vehicle id="SN_338" type="car" route="SN" depart="279" departSpeed="5"/>
    <vehicle id="t4_339" type="car" route="t4" depart="279" departSpeed="5"/>
    <vehicle id="t2_340" type="car" route="t2" depart="280" departSpeed="5"/>
    <vehicle id="EWBottom_341" type="car" route="EWBottom" depart="281" departSpeed="5"/>
    <vehicle id="EWBottom_342" type="car" route="EWBottom" depart="282" departSpeed="5"/>
    <vehicle id="NS_343" type="car" route="NS" depart="282" departSpeed="5"/>
    <vehicle id="t6_344" type="car" route="t6" depart="282" departSpeed="5"/>
    <vehicle id="WETop_345" type="car" route="WETop" depart="283" departSpeed="5"/>
    <vehicle id="SN_346" type="car" route="SN" depart="284" departSpeed="5"/>
    <vehicle id="t4_347" type="car" route="t4" depart="284" departSpeed="5"/>
    <vehicle id="WETop_348" type="car" route="WETop" depart="285" departSpeed="5"/>
    <vehicle id="SN_349" type="car" route="SN" depart="285" departSpeed="5"/>
    <vehicle id="EWBottom_350" type="car" route="EWBottom" depart="287" departSpeed="5"/>
    <vehicle id="t3_351" type="car" route="t3" depart="287" departSpeed="5"/>
    <vehicle id="WETop_352" type="car" route="WETop" depart="288" departSpeed="5"/>
    <vehicle id="WEBottom_353" type="car" route="WEBottom" depart="288" departSpeed="5"/>
    <vehicle id="EWBottom_354" type="car" route="EWBottom" depart="288" departSpeed="5"/>
    <vehicle id="t5_355" type="car" route="t5" depart="290" departSpeed="5"/>
    <vehicle id="t5_356" type="car" route="t5" depart="291" departSpeed="5"/>
    <vehicle id="EWBottom_357" type="car" route="EWBottom" depart="292" departSpeed="5"/>
    <vehicle id="t2_358" type="car" route="t2" depart="292" departSpeed="5"/>
    <vehicle id="WEBottom_359" type="car" route="WEBottom" depart="293" departSpeed="5"/>
    <vehicle id="NS_360" type="car" route="NS" depart="293" departSpeed="5"/>