<routes>
            <vType id="car" accel="1.0" decel="4.5" sigma="0.7" length="5" minGap="3" maxSpeed="15" guiShape="passenger"/>

            <route id="right" edges="1i 2o" />
            <route id="left" edges="2i 1o" />
            <route id="down" edges="4i 3o" />
            <route id="up" edges="3i 4o" />
    <vehicle id="down_0" type="car" route="down" depart="3" departSpeed="5"/>
    <vehicle id="left_1" type="car" route="left" depart="5" departSpeed="5"/>
    <vehicle id="left_2" type="car" route="left" depart="7" departSpeed="5"/>
    <vehicle id="right_3" type="car" route="right" depart="9" departSpeed="5"/>
    <vehicle id="right_4" type="car" route="right" depart="12" departSpeed="5"/>
    <vehicle id="left_5" type="car" route="left" depart="13" departSpeed="5"/>
    <vehicle id="down_6" type="car" route="down" depart="14" departSpeed="5"/>
    <vehicle id="down_7" type="car" route="down" depart="17" departSpeed="5"/>
    <vehicle id="up_8" type="car" route="up" depart="20" departSpeed="5"/>
    <vehicle id="left_9" type="car" route="left" depart="21" departSpeed="5"/>
    <vehicle id="down_10" type="car" route="down" depart="21" departSpeed="5"/>
    <vehicle id="down_11" type="car" route="down" depart="22" departSpeed="5"/>
    <vehicle id="up_12" type="car" route="up" depart="26" departSpeed="5"/>
    <vehicle id="down_13" type="car" route="down" depart="31" departSpeed="5"/>
    <vehicle id="up_14" type="car" route="up" depart="36" departSpeed="5"/>
    <vehicle id="right_15" type="car" route="right" depart="37" departSpeed="5"/>
    <vehicle id="left_16" type="car" route="left" depart="39" departSpeed="5"/>
    <vehicle id="right_17" type="car" route="right" depart="40" departSpeed="5"/>
    <vehicle id="up_18" type="car" route="up" depart="41" departSpeed="5"/>
    <vehicle id="right_19" type="car" route="right" depart="43" departSpeed="5"/>
    <vehicle id="right_20" type="car" route="right" depart="49" departSpeed="5"/>
    <vehicle id="up_21" type="car" route="up" depart="50" departSpeed="5"/>
    <vehicle id="right_22" type="car" route="right" depart="51" departSpeed="5"/>
    <vehicle id="up_23" type="car" route="up" depart="51" departSpeed="5"/>
    <vehicle id="left_24" type="car" route="left" depart="55" departSpeed="5"/>
    <vehicle id="right_25" type="car" route="right" depart="56" departSpeed="5"/>
    <vehicle id="left_26" type="car" route="left" depart="59" departSpeed="5"/>
    <vehicle id="down_27" type="car" route="down" depart="63" departSpeed="5"/>
    <vehicle id="down_28" type="car" route="down" depart="68" departSpeed="5"/>
    <vehicle id="left_29" type="car" route="left" depart="69" departSpeed="5"/>
    <vehicle id="up_30" type="car" route="up" depart="70" departSpeed="5"/>
    <vehicle id="down_31" type="car" route="down" depart="73" departSpeed="5"/>
    <vehicle id="left_32" type="car" route="left" depart="74" departSpeed="5"/>
    <vehicle id="down_33" type="car" route="down" depart="75" departSpeed="5"/>
    <vehicle id="right_34" type="car" route="right" depart="77" departSpeed="5"/>
    <vehicle id="up_35" type="car" route="up" depart="77" departSpeed="5"/>
    <vehicle id="right_36" type="car" route="right" depart="79" departSpeed="5"/>
    <vehicle id="up_37" type="car" route="up" depart="87" departSpeed="5"/>
    <vehicle id="right_38" type="car" route="right" depart="88" departSpeed="5"/>
    <vehicle id="left_39" type="car" route="left" depart="89" departSpeed="5"/>
    <vehicle id="down_40" type="car" route="down" depart="89" departSpeed="5"/>
    <vehicle id="left_41" type="car" route="left" depart="91" departSpeed="5"/>
    <vehicle id="up_42" type="car" route="up" depart="92" departSpeed="5"/>
    <vehicle id="down_43" type="car" route="down" depart="93" departSpeed="5"/>
    <vehicle id="left_44" type="car" route="left" depart="96" departSpeed="5"/>
    <vehicle id="up_45" type="car" route="up" depart="96" departSpeed="5"/>
    <vehicle id="left_46" type="car" route="left" depart="97" departSpeed="5"/>
    <vehicle id="up_47" type="car" route="up" depart="104" departSpeed="5"/>
    <vehicle id="up_48" type="car" route="up" depart="106" departSpeed="5"/>
    <vehicle id="down_49" type="car" route="down" depart="107" departSpeed="5"/>
    <vehicle id="up_50" type="car" route="up" depart="107" departSpeed="5"/>
    <vehicle id="left_51" type="car" route="left" depart="110" departSpeed="5"/>
    <vehicle id="up_52" type="car" route="up" depart="110" departSpeed="5"/>
    <vehicle id="left_53" type="car" route="left" depart="111" departSpeed="5"/>
    <vehicle id="left_54" type="car" route="left" depart="115" departSpeed="5"/>
    <vehicle id="right_55" type="car" route="right" depart="119" departSpeed="5"/>
    <vehicle id="up_56" type="car" route="up" depart="119" departSpeed="5"/>
    <vehicle id="right_57" type="car" route="right" depart="122" departSpeed="5"/>
    <vehicle id="down_58" type="car" route="down" depart="124" departSpeed="5"/>
    <vehicle id="up_59" type="car" route="up" depart="124" departSpeed="5"/>
    <vehicle id="left_60" type="car" route="left" depart="126" departSpeed="5"/>
    <vehicle id="up_61" type="car" route="up" depart="130" departSpeed="5"/>
    <vehicle id="left_62" type="car" route="left" depart="134" departSpeed="5"/>
    <vehicle id="up_63" type="car" route="up" depart="136" departSpeed="5"/>
    <vehicle id="right_64" type="car" route="right" depart="140" departSpeed="5"/>
    <vehicle id="up_65" type="car" route="up" depart="141" departSpeed="5"/>
    <vehicle id="down_66" type="car" route="down" depart="146" departSpeed="5"/>
    <vehicle id="down_67" type="car" route="down" depart="152" departSpeed="5"/>
    <vehicle id="right_68" type="car" route="right" depart="154" departSpeed="5"/>
    <vehicle id="down_69" type="car" route="down" depart="157" departSpeed="5"/>
    <vehicle id="right_70" type="car" route="right" depart="160" departSpeed="5"/>
    <vehicle id="up_71" type="car" route="up" depart="161" departSpeed="5"/>
    <vehicle id="left_72" type="car" route="left" depart="162" departSpeed="5"/>
    <vehicle id="left_73" type="car" route="left" depart="169" departSpeed="5"/>
    <vehicle id="right_74" type="car" route="right" depart="170" departSpeed="5"/>
    <vehicle id="up_75" type="car" route="up" depart="176" departSpeed="5"/>
    <vehicle id="up_76" type="car" route="up" depart="179" departSpeed="5"/>
    <vehicle id="right_77" type="car" route="right" depart="181" departSpeed="5"/>
    <vehicle id="down_78" type="car" route="down" depart="182" departSpeed="5"/>
    <vehicle id="up_79" type="car" route="up" depart="184" departSpeed="5"/>
    <vehicle id="right_80" type="car" route="right" depart="187" departSpeed="5"/>
    <vehicle id="right_81" type="car" route="right" depart="196" departSpeed="5"/>
    <vehicle id="right_82" type="car" route="right" depart="200" departSpeed="5"/>
    <vehicle id="up_83" type="car" route="up" depart="200" departSpeed="5"/>
    <vehicle id="left_84" type="car" route="left" depart="201" departSpeed="5"/>
    <vehicle id="down_85" type="car" route="down" depart="202" departSpeed="5"/>
    <vehicle id="up_86" type="car" route="up" depart="213" departSpeed="5"/>
    <vehicle id="down_87" type="car" route="down" depart="214" departSpeed="5"/>
    <vehicle id="left_88" type="car" route="left" depart="215" departSpeed="5"/>
    <vehicle id="down_89" type="car" route="down" depart="217" departSpeed="5"/>
    <vehicle id="right_90" type="car" route="right" depart="219" departSpeed="5"/>
    <vehicle id="down_91" type="car" route="down" depart="219" departSpeed="5"/>
    <vehicle id="down_92" type="car" route="down" depart="221" departSpeed="5"/>
    <vehicle id="right_93" type="car" route="right" depart="224" departSpeed="5"/>
    <vehicle id="left_94" type="car" route="left" depart="224" departSpeed="5"/>
    <vehicle id="right_95" type="car" route="right" depart="226" departSpeed="5"/>
    <vehicle id="up_96" type="car" route="up" depart="233" departSpeed="5"/>
    <vehicle id="left_97" type="car" route="left" depart="234" departSpeed="5"/>
    <vehicle id="up_98" type="car" route="up" depart="234" departSpeed="5"/>
    <vehicle id="down_99" type="car" route="down" depart="240" departSpeed="5"/>
    <vehicle id="up_100" type="car" route="up" depart="241" departSpeed="5"/>
    <vehicle id="left_101" type="car" route="left" depart="242" departSpeed="5"/>
    <vehicle id="down_102" type="car" route="down" depart="242" departSpeed="5"/>
    <vehicle id="left_103" type="car" route="left" depart="244" departSpeed="5"/>
    <vehicle id="down_104" type="car" route="down" depart="244" departSpeed="5"/>
    <vehicle id="up_105" type="car" route="up" depart="244" departSpeed="5"/>
    <vehicle id="up_106" type="car" route="up" depart="245" departSpeed="5"/>
    <vehicle id="down_107" type="car" route="down" depart="247" departSpeed="5"/>
    <vehicle id="up_108" type="car" route="up" depart="247" departSpeed="5"/>
    <vehicle id="up_109" type="car" route="up" depart="250" departSpeed="5"/>
    <vehicle id="up_110" type="car" route="up" depart="252" departSpeed="5"/>
    <vehicle id="down_111" type="car" route="down" depart="255" departSpeed="5"/>
    <vehicle id="down_112" type="car" route="down" depart="264" departSpeed="5"/>
    <vehicle id="right_113" type="car" route="right" depart="265" departSpeed="5"/>
    <vehicle id="down_114" type="car" route="down" depart="265" departSpeed="5"/>
    <vehicle id="down_115" type="car" route="down" depart="270" departSpeed="5"/>
    <vehicle id="up_116" type="car" route="up" depart="270" departSpeed="5"/>
    <vehicle id="right_117" type="car" route="right" depart="271" departSpeed="5"/>
    <vehicle id="left_118" type="car" route="left" depart="278" departSpeed="5"/>
    <vehicle id="down_119" type="car" route="down" depart="278" departSpeed="5"/>
    <vehicle id="right_120" type="car" route="right" depart="284" departSpeed="5"/>
    <vehicle id="up_121" type="car" route="up" depart="289" departSpeed="5"/>
    <vehicle id="down_122" type="car" route="down" depart="290" departSpeed="5"/>
    <vehicle id="right_123" type="car" route="right" depart="292" departSpeed="5"/>
    <vehicle id="down_124" type="car" route="down" depart="293" departSpeed="5"/>
    <vehicle id="right_125" type="car" route="right" depart="297" departSpeed="5"/>
    <vehicle id="left_126" type="car" route="left" depart="300" departSpeed="5"/>
    <vehicle id="up_127" type="car" route="up" depart="302" departSpeed="5"/>
    <vehicle id="right_128" type="car" route="right" depart="306" departSpeed="5"/>
    <vehicle id="left_129" type="car" route="left" depart="306" departSpeed="5"/>
    <vehicle id="up_130" type="car" route="up" depart="306" departSpeed="5"/>
    <vehicle id="right_131" type="car" route="right" depart="310" departSpeed="5"/>
    <vehicle id="right_132" type="car" route="right" depart="312" departSpeed="5"/>
    <vehicle id="up_133" type="car" route="up" depart="315" departSpeed="5"/>
    <vehicle id="left_134" type="car" route="left" depart="316" departSpeed="5"/>
    <vehicle id="down_135" type="car" route="down" depart="316" departSpeed="5"/>
    <vehicle id="right_136" type="car" route="right" depart="320" departSpeed="5"/>
    <vehicle id="right_137" type="car" route="right" depart="325" departSpeed="5"/>
    <vehicle id="up_138" type="car" route="up" depart="325" departSpeed="5"/>
    <vehicle id="up_139" type="car" route="up" depart="327" departSpeed="5"/>
    <vehicle id="up_140" type="car" route="up" depart="330" departSpeed="5"/>
    <vehicle id="left_141" type="car" route="left" depart="336" departSpeed="5"/>
    <vehicle id="right_142" type="car" route="right" depart="337" departSpeed="5"/>
    <vehicle id="up_143" type="car" route="up" depart="339" departSpeed="5"/>
    <vehicle id="left_144" type="car" route="left" depart="343" departSpeed="5"/>
    <vehicle id="down_145" type="car" route="down" depart="343" departSpeed="5"/>
    <vehicle id="down_146" type="car" route="down" depart="346" departSpeed="5"/>
    <vehicle id="right_147" type="car" route="right" depart="352" departSpeed="5"/>
    <vehicle id="left_148" type="car" route="left" depart="352" departSpeed="5"/>
    <vehicle id="down_149" type="car" route="down" depart="353" departSpeed="5"/>
    <vehicle id="down_150" type="car" route="down" depart="355" departSpeed="5"/>
    <vehicle id="left_151" type="car" route="left" depart="356" departSpeed="5"/>
    <vehicle id="right_152" type="car" route="right" depart="359" departSpeed="5"/>
    <vehicle id="up_153" type="car" route="up" depart="363" departSpeed="5"/>
    <vehicle id="left_154" type="car" route="left" depart="364" departSpeed="5"/>
    <vehicle id="right_155" type="car" route="right" depart="365" departSpeed="5"/>
    <vehicle id="up_156" type="car" route="up" depart="365" departSpeed="5"/>
    <vehicle id="down_157" type="car" route="down" depart="366" departSpeed="5"/>
    <vehicle id="up_158" type="car" route="up" depart="367" departSpeed="5"/>
    <vehicle id="right_159" type="car" route="right" depart="368" departSpeed="5"/>
    <vehicle id="left_160" type="car" route="left" depart="368" departSpeed="5"/>
    <vehicle id="down_161" type="car" route="down" depart="371" departSpeed="5"/>
    <vehicle id="left_162" type="car" route="left" depart="372" departSpeed="5"/>
    <vehicle id="left_163" type="car" route="left" depart="373" departSpeed="5"/>
    <vehicle id="right_164" type="car" route="right" depart="375" departSpeed="5"/>
    <vehicle id="right_165" type="car" route="right" depart="377" departSpeed="5"/>
    <vehicle id="right_166" type="car" route="right" depart="378" departSpeed="5"/>
    <vehicle id="right_167" type="car" route="right" depart="389" departSpeed="5"/>
    <vehicle id="right_168" type="car" route="right" depart="390" departSpeed="5"/>
    <vehicle id="left_169" type="car" route="left" depart="391" departSpeed="5"/>
    <vehicle id="up_170" type="car" route="up" depart="391" departSpeed="5"/>
    <vehicle id="down_171" type="car" route="down" depart="392" departSpeed="5"/>
    <vehicle id="up_172" type="car" route="up" depart="397" departSpeed="5"/>
    <vehicle id="up_173" type="car" route="up" depart="400" departSpeed="5"/>
    <vehicle id="right_174" type="car" route="right" depart="402" departSpeed="5"/>
    <vehicle id="down_175" type="car" route="down" depart="402" departSpeed="5"/>
    <vehicle id="right_176" type="car" route="right" depart="405" departSpeed="5"/>
    <vehicle id="down_177" type="car" route="down" depart="405" departSpeed="5"/>
    <vehicle id="right_178" type="car" route="right" depart="408" departSpeed="5"/>
    <vehicle id="up_179" type="car" route="up" depart="408" departSpeed="5"/>
    <vehicle id="right_180" type="car" route="right" depart="410" departSpeed="5"/>
    <vehicle id="up_181" type="car" route="up" depart="411" departSpeed="5"/>
    <vehicle id="up_182" type="car" route="up" depart="413" departSpeed="5"/>
    <vehicle id="left_183" type="car" route="left" depart="415" departSpeed="5"/>
    <vehicle id="down_184" type="car" route="down" depart="417" departSpeed="5"/>
    <vehicle id="left_185" type="car" route="left" depart="421" departSpeed="5"/>
    <vehicle id="down_186" type="car" route="down" depart="421" departSpeed="5"/>
    <vehicle id="right_187" type="car" route="right" depart="424" departSpeed="5"/>
    <vehicle id="down_188" type="car" route="down" depart="428" departSpeed="5"/>
    <vehicle id="right_189" type="car" route="right" depart="430" departSpeed="5"/>
    <vehicle id="left_190" type="car" route="left" depart="431" departSpeed="5"/>
    <vehicle id="up_191" type="car" route="up" depart="431" departSpeed="5"/>
    <vehicle id="down_192" type="car" route="down" depart="432" departSpeed="5"/>
    <vehicle id="right_193" type="car" route="right" depart="436" departSpeed="5"/>
    <vehicle id="up_194" type="car" route="up" depart="437" departSpeed="5"/>
    <vehicle id="up_195" type="car" route="up" depart="438" departSpeed="5"/>
    <vehicle id="down_196" type="car" route="down" depart="441" departSpeed="5"/>
    <vehicle id="right_197" type="car" route="right" depart="443" departSpeed="5"/>
    <vehicle id="right_198" type="car" route="right" depart="447" departSpeed="5"/>
    <vehicle id="left_199" type="car" route="left" depart="447" departSpeed="5"/>
    <vehicle id="left_200" type="car" route="left" depart="451" departSpeed="5"/>
    <vehicle id="down_201" type="car" route="down" depart="463" departSpeed="5"/>
    <vehicle id="down_202" type="car" route="down" depart="464" departSpeed="5"/>
    <vehicle id="up_203" type="car" route="up" depart="473" departSpeed="5"/>
    <vehicle id="left_204" type="car" route="left" depart="478" departSpeed="5"/>
    <vehicle id="up_205" type="car" route="up" depart="480" departSpeed="5"/>
    <vehicle id="right_206" type="car" route="right" depart="481" departSpeed="5"/>
    <vehicle id="left_207" type="car" route="left" depart="482" departSpeed="5"/>
    <vehicle id="left_208" type="car" route="left" depart="484" departSpeed="5"/>
    <vehicle id="left_209" type="car" route="left" depart="488" departSpeed="5"/>
    <vehicle id="left_210" type="car" route="left" depart="491" departSpeed="5"/>
    <vehicle id="down_211" type="car" route="down" depart="493" departSpeed="5"/>
    <vehicle id="right_212" type="car" route="right" depart="499" departSpeed="5"/>
    <vehicle id="right_213" type="car" route="right" depart="502" departSpeed="5"/>
    <vehicle id="down_214" type="car" route="down" depart="502" departSpeed="5"/>
    <vehicle id="left_215" type="car" route="left" depart="504" departSpeed="5"/>
    <vehicle id="up_216" type="car" route="up" depart="504" departSpeed="5"/>
    <vehicle id="right_217" type="car" route="right" depart="506" departSpeed="5"/>
    <vehicle id="up_218" type="car" route="up" depart="510" departSpeed="5"/>
    <vehicle id="right_219" type="car" route="right" depart="511" departSpeed="5"/>
    <vehicle id="down_220" type="car" route="down" depart="513" departSpeed="5"/>
    <vehicle id="up_221" type="car" route="up" depart="513" departSpeed="5"/>
    <vehicle id="up_222" type="car" route="up" depart="514" departSpeed="5"/>
    <vehicle id="down_223" type="car" route="down" depart="515" departSpeed="5"/>
    <vehicle id="right_224" type="car" route="right" depart="517" departSpeed="5"/>
    <vehicle id="down_225" type="car" route="down" depart="517" departSpeed="5"/>
    <vehicle id="right_226" type="car" route="right" depart="520" departSpeed="5"/>
    <vehicle id="left_227" type="car" route="left" depart="533" departSpeed="5"/>
    <vehicle id="left_228" type="car" route="left" depart="535" departSpeed="5"/>
    <vehicle id="up_229" type="car" route="up" depart="539" departSpeed="5"/>
    <vehicle id="right_230" type="car" route="right" depart="545" departSpeed="5"/>
    <vehicle id="down_231" type="car" route="down" depart="546" departSpeed="5"/>
    <vehicle id="right_232" type="car" route="right" depart="547" departSpeed="5"/>
    <vehicle id="left_233" type="car" route="left" depart="547" departSpeed="5"/>
    <vehicle id="up_234" type="car" route="up" depart="547" departSpeed="5"/>
    <vehicle id="left_235" type="car" route="left" depart="548" departSpeed="5"/>
    <vehicle id="down_236" type="car" route="down" depart="549" departSpeed="5"/>
    <vehicle id="up_237" type="car" route="up" depart="549" departSpeed="5"/>
    <vehicle id="down_238" type="car" route="down" depart="553" departSpeed="5"/>
    <vehicle id="down_239" type="car" route="down" depart="556" departSpeed="5"/>
    <vehicle id="up_240" type="car" route="up" depart="557" departSpeed="5"/>
    <vehicle id="left_241" type="car" route="left" depart="558" departSpeed="5"/>
    <vehicle id="left_242" type="car" route="left" depart="561" departSpeed="5"/>
    <vehicle id="left_243" type="car" route="left" depart="562" departSpeed="5"/>
    <vehicle id="left_244" type="car" route="left" depart="565" departSpeed="5"/>
    <vehicle id="down_245" type="car" route="down" depart="574" departSpeed="5"/>
    <vehicle id="right_246" type="car" route="right" depart="576" departSpeed="5"/>
    <vehicle id="down_247" type="car" route="down" depart="579" departSpeed="5"/>
    <vehicle id="down_248" type="car" route="down" depart="583" departSpeed="5"/>
    <vehicle id="up_249" type="car" route="up" depart="588" departSpeed="5"/>
    <vehicle id="right_250" type="car" route="right" depart="589" departSpeed="5"/>
    <vehicle id="left_251" type="car" route="left" depart="600" departSpeed="5"/>
    <vehicle id="right_252" type="car" route="right" depart="602" departSpeed="5"/>
    <vehicle id="left_253" type="car" route="left" depart="605" departSpeed="5"/>
    <vehicle id="down_254" type="car" route="down" depart="611" departSpeed="5"/>
    <vehicle id="down_255" type="car" route="down" depart="612" departSpeed="5"/>
    <vehicle id="right_256" type="car" route="right" depart="613" departSpeed="5"/>
    <vehicle id="right_257" type="car" route="right" depart="614" departSpeed="5"/>
    <vehicle id="down_258" type="car" route="down" depart="614" departSpeed="5"/>
    <vehicle id="up_259" type="car" route="up" depart="619" departSpeed="5"/>
    <vehicle id="down_260" type="car" route="down" depart="624" departSpeed="5"/>
    <vehicle id="right_261" type="car" route="right" depart="626" departSpeed="5"/>
    <vehicle id="up_262" type="car" route="up" depart="629" departSpeed="5"/>
    <vehicle id="up_263" type="car" route="up" depart="631" departSpeed="5"/>
    <vehicle id="right_264" type="car" route="right" depart="632" departSpeed="5"/>
    <vehicle id="left_265" type="car" route="left" depart="634" departSpeed="5"/>
    <vehicle id="left_266" type="car" route="left" depart="642" departSpeed="5"/>
    <vehicle id="right_267" type="car" route="right" depart="648" departSpeed="5"/>
    <vehicle id="down_268" type="car" route="down" depart="654" departSpeed="5"/>
    <vehicle id="left_269" type="car" route="left" depart="656" departSpeed="5"/>
    <vehicle id="up_270" type="car" route="up" depart="656" departSpeed="5"/>
    <vehicle id="left_271" type="car" route="left" depart="661" departSpeed="5"/>
    <vehicle id="down_272" type="car" route="down" depart="662" departSpeed="5"/>
    <vehicle id="up_273" type="car" route="up" depart="663" departSpeed="5"/>
    <vehicle id="left_274" type="car" route="left" depart="666" departSpeed="5"/>
    <vehicle id="right_275" type="car" route="right" depart="669" departSpeed="5"/>
    <vehicle id="down_276" type="car" route="down" depart="672" departSpeed="5"/>
    <vehicle id="up_277" type="car" route="up" depart="674" departSpeed="5"/>
    <vehicle id="up_278" type="car" route="up" depart="675" departSpeed="5"/>
    <vehicle id="right_279" type="car" route="right" depart="676" departSpeed="5"/>
    <vehicle id="up_280" type="car" route="up" depart="683" departSpeed="5"/>
    <vehicle id="right_281" type="car" route="right" depart="684" departSpeed="5"/>
    <vehicle id="up_282" type="car" route="up" depart="685" departSpeed="5"/>
    <vehicle id="up_283" type="car" route="up" depart="687" departSpeed="5"/>
    <vehicle id="down_284" type="car" route="down" depart="690" departSpeed="5"/>
    <vehicle id="up_285" type="car" route="up" depart="690" departSpeed="5"/>
    <vehicle id="right_286" type="car" route="right" depart="694" departSpeed="5"/>
    <vehicle id="down_287" type="car" route="down" depart="694" departSpeed="5"/>
    <vehicle id="up_288" type="car" route="up" depart="694" departSpeed="5"/>
    <vehicle id="left_289" type="car" route="left" depart="695" departSpeed="5"/>
    <vehicle id="up_290" type="car" route="up" depart="698" departSpeed="5"/>
    <vehicle id="left_291" type="car" route="left" depart="701" departSpeed="5"/>
    <vehicle id="right_292" type="car" route="right" depart="702" departSpeed="5"/>
    <vehicle id="down_293" type="car" route="down" depart="704" departSpeed="5"/>
    <vehicle id="left_294" type="car" route="left" depart="705" departSpeed="5"/>
    <vehicle id="left_295" type="car" route="left" depart="706" departSpeed="5"/>
    <vehicle id="down_296" type="car" route="down" depart="706" departSpeed="5"/>
    <vehicle id="up_297" type="car" route="up" depart="706" departSpeed="5"/>
    <vehicle id="down_298" type="car" route="down" depart="707" departSpeed="5"/>
    <vehicle id="down_299" type="car" route="down" depart="708" departSpeed="5"/>
    <vehicle id="left_300" type="car" route="left" depart="709" departSpeed="5"/>
    <vehicle id="left_301" type="car" route="left" depart="722" departSpeed="5"/>
    <vehicle id="right_302" type="car" route="right" depart="726" departSpeed="5"/>
    <vehicle id="down_303" type="car" route="down" depart="728" departSpeed="5"/>
    <vehicle id="down_304" type="car" route="down" depart="731" departSpeed="5"/>
    <vehicle id="up_305" type="car" route="up" depart="733" departSpeed="5"/>
    <vehicle id="up_306" type="car" route="up" depart="734" departSpeed="5"/>
    <vehicle id="right_307" type="car" route="right" depart="735" departSpeed="5"/>
    <vehicle id="up_308" type="car" route="up" depart="738" departSpeed="5"/>
    <vehicle id="left_309" type="car" route="left" depart="739" departSpeed="5"/>
    <vehicle id="right_310" type="car" route="right" depart="743" departSpeed="5"/>
    <vehicle id="left_311" type="car" route="left" depart="743" departSpeed="5"/>
    <vehicle id="down_312" type="car" route="down" depart="744" departSpeed="5"/>
    <vehicle id="up_313" type="car" route="up" depart="745" departSpeed="5"/>
    <vehicle id="up_314" type="car" route="up" depart="755" departSpeed="5"/>
    <vehicle id="right_315" type="car" route="right" depart="757" departSpeed="5"/>
    <vehicle id="up_316" type="car" route="up" depart="768" departSpeed="5"/>
    <vehicle id="up_317" type="car" route="up" depart="769" departSpeed="5"/>
    <vehicle id="right_318" type="car" route="right" depart="770" departSpeed="5"/>
    <vehicle id="up_319" type="car" route="up" depart="770" departSpeed="5"/>
    <vehicle id="left_320" type="car" route="left" depart="771" departSpeed="5"/>
    <vehicle id="down_321" type="car" route="down" depart="778" departSpeed="5"/>
    <vehicle id="left_322" type="car" route="left" depart="780" departSpeed="5"/>
    <vehicle id="up_323" type="car" route="up" depart="784" departSpeed="5"/>
    <vehicle id="left_324" type="car" route="left" depart="786" departSpeed="5"/>
    <vehicle id="down_325" type="car" route="down" depart="786" departSpeed="5"/>
    <vehicle id="up_326" type="car" route="up" depart="786" departSpeed="5"/>
    <vehicle id="right_327" type="car" route="right" depart="788" departSpeed="5"/>
    <vehicle id="up_328" type="car" route="up" depart="788" departSpeed="5"/>
    <vehicle id="left_329" type="car" route="left" depart="789" departSpeed="5"/>
    <vehicle id="up_330" type="car" route="up" depart="792" departSpeed="5"/>
    <vehicle id="left_331" type="car" route="left" depart="799" departSpeed="5"/>
    <vehicle id="right_332" type="car" route="right" depart="800" departSpeed="5"/>
    <vehicle id="down_333" type="car" route="down" depart="802" departSpeed="5"/>
    <vehicle id="up_334" type="car" route="up" depart="805" departSpeed="5"/>
    <vehicle id="left_335" type="car" route="left" depart="807" departSpeed="5"/>
    <vehicle id="up_336" type="car" route="up" depart="807" departSpeed="5"/>
    <vehicle id="up_337" type="car" route="up" depart="810" departSpeed="5"/>
    <vehicle id="down_338" type="car" route="down" depart="814" departSpeed="5"/>
    <vehicle id="up_339" type="car" route="up" depart="814" departSpeed="5"/>
    <vehicle id="left_340" type="car" route="left" depart="815" departSpeed="5"/>
    <vehicle id="up_341" type="car" route="up" depart="817" departSpeed="5"/>
    <vehicle id="up_342" type="car" route="up" depart="818" departSpeed="5"/>
    <vehicle id="up_343" type="car" route="up" depart="828" departSpeed="5"/>
    <vehicle id="left_344" type="car" route="left" depart="838" departSpeed="5"/>
    <vehicle id="down_345" type="car" route="down" depart="839" departSpeed="5"/>
    <vehicle id="up_346" type="car" route="up" depart="841" departSpeed="5"/>
    <vehicle id="right_347" type="car" route="right" depart="842" departSpeed="5"/>
    <vehicle id="up_348" type="car" route="up" depart="843" departSpeed="5"/>
    <vehicle id="up_349" type="car" route="up" depart="856" departSpeed="5"/>
    <vehicle id="right_350" type="car" route="right" depart="860" departSpeed="5"/>
    <vehicle id="left_351" type="car" route="left" depart="861" departSpeed="5"/>
    <vehicle id="left_352" type="car" route="left" depart="862" departSpeed="5"/>
    <vehicle id="left_353" type="car" route="left" depart="864" departSpeed="5"/>
    <vehicle id="right_354" type="car" route="right" depart="865" departSpeed="5"/>
    <vehicle id="right_355" type="car" route="right" depart="869" departSpeed="5"/>
    <vehicle id="right_356" type="car" route="right" depart="870" departSpeed="5"/>
    <vehicle id="down_357" type="car" route="down" depart="875" departSpeed="5"/>
    <vehicle id="left_358" type="car" route="left" depart="877" departSpeed="5"/>
    <vehicle id="up_359" type="car" route="up" depart="877" departSpeed="5"/>
    <vehicle id="right_360" type="car" route="right" depart="878" departSpeed="5"/>
    <vehicle id="up_361" type="car" route="up" depart="881" departSpeed="5"/>
    <vehicle id="right_362" type="car" route="right" depart="882" departSpeed="5"/>
    <vehicle id="right_363" type="car" route="right" depart="886" departSpeed="5"/>
    <vehicle id="right_364" type="car" route="right" depart="889" departSpeed="5"/>
    <vehicle id="right_365" type="car" route="right" depart="890" departSpeed="5"/>