<routes>
            <vType id="car" accel="1.0" decel="4.5" sigma="0.7" length="5" minGap="3" maxSpeed="15" guiShape="passenger"/>

            <route id="right" edges="1i 2o" />
            <route id="left" edges="2i 1o" />
            <route id="down" edges="4i 3o" />
            <route id="up" edges="3i 4o" />
    <vehicle id="up_0" type="car" route="up" depart="0" departSpeed="5"/>
    <vehicle id="up_1" type="car" route="up" depart="1" departSpeed="5"/>
    <vehicle id="up_2" type="car" route="up" depart="3" departSpeed="5"/>
    <vehicle id="up_3" type="car" route="up" depart="5" departSpeed="5"/>
    <vehicle id="right_4" type="car" route="right" depart="6" departSpeed="5"/>
    <vehicle id="left_5" type="car" route="left" depart="10" departSpeed="5"/>
    <vehicle id="down_6" type="car" route="down" depart="11" departSpeed="5"/>
    <vehicle id="up_7" type="car" route="up" depart="11" departSpeed="5"/>
    <vehicle id="down_8" type="car" route="down" depart="12" departSpeed="5"/>
    <vehicle id="up_9" type="car" route="up" depart="12" departSpeed="5"/>
    <vehicle id="down_10" type="car" route="down" depart="21" departSpeed="5"/>
    <vehicle id="down_11" type="car" route="down" depart="25" departSpeed="5"/>
    <vehicle id="up_12" type="car" route="up" depart="26" departSpeed="5"/>
    <vehicle id="left_13" type="car" route="left" depart="27" departSpeed="5"/>
    <vehicle id="up_14" type="car" route="up" depart="31" departSpeed="5"/>
    <vehicle id="left_15" type="car" route="left" depart="35" departSpeed="5"/>
    <vehicle id="left_16" type="car" route="left" depart="38" departSpeed="5"/>
    <vehicle id="down_17" type="car" route="down" depart="38" departSpeed="5"/>
    <vehicle id="left_18" type="car" route="left" depart="46" departSpeed="5"/>
    <vehicle id="down_19" type="car" route="down" depart="47" departSpeed="5"/>
    <vehicle id="up_20" type="car" route="up" depart="47" departSpeed="5"/>
    <vehicle id="left_21" type="car" route="left" depart="48" departSpeed="5"/>
    <vehicle id="down_22" type="car" route="down" depart="49" departSpeed="5"/>
    <vehicle id="down_23" type="car" route="down" depart="56" departSpeed="5"/>
    <vehicle id="up_24" type="car" route="up" depart="56" departSpeed="5"/>
    <vehicle id="left_25" type="car" route="left" depart="64" departSpeed="5"/>
    <vehicle id="left_26" type="car" route="left" depart="66" departSpeed="5"/>
    <vehicle id="right_27" type="car" route="right" depart="67" departSpeed="5"/>
    <vehicle id="left_28" type="car" route="left" depart="67" departSpeed="5"/>
    <vehicle id="right_29" type="car" route="right" depart="69" departSpeed="5"/>
    <vehicle id="up_30" type="car" route="up" depart="74" departSpeed="5"/>
    <vehicle id="down_31" type="car" route="down" depart="75" departSpeed="5"/>
    <vehicle id="left_32" type="car" route="left" depart="80" departSpeed="5"/>
    <vehicle id="left_33" type="car" route="left" depart="84" departSpeed="5"/>
    <vehicle id="left_34" type="car" route="left" depart="89" departSpeed="5"/>
    <vehicle id="up_35" type="car" route="up" depart="89" departSpeed="5"/>
    <vehicle id="right_36" type="car" route="right" depart="90" departSpeed="5"/>
    <vehicle id="down_37" type="car" route="down" depart="93" departSpeed="5"/>
    <vehicle id="up_38" type="car" route="up" depart="93" departSpeed="5"/>
    <vehicle id="left_39" type="car" route="left" depart="96" departSpeed="5"/>
    <vehicle id="up_40" type="car" route="up" depart="96" departSpeed="5"/>
    <vehicle id="down_41" type="car" route="down" depart="97" departSpeed="5"/>
    <vehicle id="right_42" type="car" route="right" depart="100" departSpeed="5"/>
    <vehicle id="up_43" type="car" route="up" depart="100" departSpeed="5"/>
    <vehicle id="down_44" type="car" route="down" depart="102" departSpeed="5"/>
    <vehicle id="right_45" type="car" route="right" depart="108" departSpeed="5"/>
    <vehicle id="up_46" type="car" route="up" depart="114" departSpeed="5"/>
    <vehicle id="right_47" type="car" route="right" depart="122" departSpeed="5"/>
    <vehicle id="left_48" type="car" route="left" depart="127" departSpeed="5"/>
    <vehicle id="right_49" type="car" route="right" depart="128" departSpeed="5"/>
    <vehicle id="up_50" type="car" route="up" depart="129" departSpeed="5"/>
    <vehicle id="up_51" type="car" route="up" depart="130" departSpeed="5"/>
    <vehicle id="up_52" type="car" route="up" depart="138" departSpeed="5"/>
    <vehicle id="up_53" type="car" route="up" depart="141" departSpeed="5"/>
    <vehicle id="left_54" type="car" route="left" depart="143" departSpeed="5"/>
    <vehicle id="up_55" type="car" route="up" depart="148" departSpeed="5"/>
    <vehicle id="up_56" type="car" route="up" depart="149" departSpeed="5"/>
    <vehicle id="up_57" type="car" route="up" depart="150" departSpeed="5"/>
    <vehicle id="left_58" type="car" route="left" depart="151" departSpeed="5"/>
    <vehicle id="left_59" type="car" route="left" depart="157" departSpeed="5"/>
    <vehicle id="down_60" type="car" route="down" depart="157" departSpeed="5"/>
    <vehicle id="up_61" type="car" route="up" depart="162" departSpeed="5"/>
    <vehicle id="up_62" type="car" route="up" depart="171" departSpeed="5"/>
    <vehicle id="left_63" type="car" route="left" depart="175" departSpeed="5"/>
    <vehicle id="right_64" type="car" route="right" depart="180" departSpeed="5"/>
    <vehicle id="down_65" type="car" route="down" depart="187" departSpeed="5"/>
    <vehicle id="left_66" type="car" route="left" depart="188" departSpeed="5"/>
    <vehicle id="down_67" type="car" route="down" depart="189" departSpeed="5"/>
    <vehicle id="down_68" type="car" route="down" depart="191" departSpeed="5"/>
    <vehicle id="up_69" type="car" route="up" depart="193" departSpeed="5"/>
    <vehicle id="left_70" type="car" route="left" depart="194" departSpeed="5"/>
    <vehicle id="left_71" type="car" route="left" depart="196" departSpeed="5"/>
    <vehicle id="up_72" type="car" route="up" depart="198" departSpeed="5"/>
    <vehicle id="left_73" type="car" route="left" depart="201" departSpeed="5"/>
    <vehicle id="right_74" type="car" route="right" depart="205" departSpeed="5"/>
    <vehicle id="right_75" type="car" route="right" depart="206" departSpeed="5"/>
    <vehicle id="right_76" type="car" route="right" depart="207" departSpeed="5"/>
    <vehicle id="left_77" type="car" route="left" depart="207" departSpeed="5"/>
    <vehicle id="up_78" type="car" route="up" depart="207" departSpeed="5"/>
    <vehicle id="up_79" type="car" route="up" depart="210" departSpeed="5"/>
    <vehicle id="up_80" type="car" route="up" depart="216" departSpeed="5"/>
    <vehicle id="right_81" type="car" route="right" depart="219" departSpeed="5"/>
    <vehicle id="right_82" type="car" route="right" depart="220" departSpeed="5"/>
    <vehicle id="up_83" type="car" route="up" depart="220" departSpeed="5"/>
    <vehicle id="up_84" type="car" route="up" depart="226" departSpeed="5"/>
    <vehicle id="left_85" type="car" route="left" depart="234" departSpeed="5"/>
    <vehicle id="right_86" type="car" route="right" depart="236" departSpeed="5"/>
    <vehicle id="left_87" type="car" route="left" depart="236" departSpeed="5"/>
    <vehicle id="left_88" type="car" route="left" depart="238" departSpeed="5"/>
    <vehicle id="right_89" type="car" route="right" depart="254" departSpeed="5"/>
    <vehicle id="down_90" type="car" route="down" depart="255" departSpeed="5"/>
    <vehicle id="left_91" type="car" route="left" depart="260" departSpeed="5"/>
    <vehicle id="left_92" type="car" route="left" depart="261" departSpeed="5"/>
    <vehicle id="left_93" type="car" route="left" depart="263" departSpeed="5"/>
    <vehicle id="down_94" type="car" route="down" depart="263" departSpeed="5"/>
    <vehicle id="up_95" type="car" route="up" depart="269" departSpeed="5"/>
    <vehicle id="right_96" type="car" route="right" depart="281" departSpeed="5"/>
    <vehicle id="down_97" type="car" route="down" depart="283" departSpeed="5"/>
    <vehicle id="right_98" type="car" route="right" depart="287" departSpeed="5"/>
    <vehicle id="left_99" type="car" route="left" depart="293" departSpeed="5"/>
    <vehicle id="left_100" type="car" route="left" depart="297" departSpeed="5"/>
    <vehicle id="down_101" type="car" route="down" depart="300" departSpeed="5"/>
    <vehicle id="up_102" type="car" route="up" depart="301" departSpeed="5"/>
    <vehicle id="right_103" type="car" route="right" depart="305" departSpeed="5"/>
    <vehicle id="down_104" type="car" route="down" depart="305" departSpeed="5"/>
    <vehicle id="down_105" type="car" route="down" depart="307" departSpeed="5"/>
    <vehicle id="up_106" type="car" route="up" depart="309" departSpeed="5"/>
    <vehicle id="left_107" type="car" route="left" depart="310" departSpeed="5"/>
    <vehicle id="up_108" type="car" route="up" depart="311" departSpeed="5"/>
    <vehicle id="left_109" type="car" route="left" depart="316" departSpeed="5"/>
    <vehicle id="down_110" type="car" route="down" depart="317" departSpeed="5"/>
    <vehicle id="down_111" type="car" route="down" depart="320" departSpeed="5"/>
    <vehicle id="up_112" type="car" route="up" depart="326" departSpeed="5"/>
    <vehicle id="right_113" type="car" route="right" depart="327" departSpeed="5"/>
    <vehicle id="right_114" type="car" route="right" depart="335" departSpeed="5"/>
    <vehicle id="down_115" type="car" route="down" depart="338" departSpeed="5"/>
    <vehicle id="down_116" type="car" route="down" depart="340" departSpeed="5"/>
    <vehicle id="up_117" type="car" route="up" depart="343" departSpeed="5"/>
    <vehicle id="left_118" type="car" route="left" depart="349" departSpeed="5"/>
    <vehicle id="down_119" type="car" route="down" depart="349" departSpeed="5"/>
    <vehicle id="up_120" type="car" route="up" depart="349" departSpeed="5"/>
    <vehicle id="up_121" type="car" route="up" depart="351" departSpeed="5"/>
    <vehicle id="up_122" type="car" route="up" depart="354" departSpeed="5"/>
    <vehicle id="right_123" type="car" route="right" depart="355" departSpeed="5"/>
    <vehicle id="down_124" type="car" route="down" depart="355" departSpeed="5"/>
    <vehicle id="left_125" type="car" route="left" depart="356" departSpeed="5"/>
    <vehicle id="right_126" type="car" route="right" depart="357" departSpeed="5"/>
    <vehicle id="right_127" type="car" route="right" depart="361" departSpeed="5"/>
    <vehicle id="right_128" type="car" route="right" depart="362" departSpeed="5"/>
    <vehicle id="down_129" type="car" route="down" depart="364" departSpeed="5"/>
    <vehicle id="right_130" type="car" route="right" depart="370" departSpeed="5"/>
    <vehicle id="left_131" type="car" route="left" depart="370" departSpeed="5"/>
    <vehicle id="right_132" type="car" route="right" depart="371" departSpeed="5"/>
    <vehicle id="left_133" type="car" route="left" depart="375" departSpeed="5"/>
    <vehicle id="right_134" type="car" route="right" depart="376" departSpeed="5"/>
    <vehicle id="right_135" type="car" route="right" depart="377" departSpeed="5"/>
    <vehicle id="up_136" type="car" route="up" depart="380" departSpeed="5"/>
    <vehicle id="right_137" type="car" route="right" depart="388" departSpeed="5"/>
    <vehicle id="up_138" type="car" route="up" depart="389" departSpeed="5"/>
    <vehicle id="down_139" type="car" route="down" depart="391" departSpeed="5"/>
    <vehicle id="up_140" type="car" route="up" depart="393" departSpeed="5"/>
    <vehicle id="left_141" type="car" route="left" depart="402" departSpeed="5"/>
    <vehicle id="left_142" type="car" route="left" depart="414" departSpeed="5"/>
    <vehicle id="right_143" type="car" route="right" depart="419" departSpeed="5"/>
    <vehicle id="left_144" type="car" route="left" depart="420" departSpeed="5"/>
    <vehicle id="down_145" type="car" route="down" depart="420" departSpeed="5"/>
    <vehicle id="up_146" type="car" route="up" depart="420" departSpeed="5"/>
    <vehicle id="down_147" type="car" route="down" depart="421" departSpeed="5"/>
    <vehicle id="up_148" type="car" route="up" depart="422" departSpeed="5"/>
    <vehicle id="up_149" type="car" route="up" depart="424" departSpeed="5"/>
    <vehicle id="left_150" type="car" route="left" depart="425" departSpeed="5"/>
    <vehicle id="up_151" type="car" route="up" depart="426" departSpeed="5"/>
    <vehicle id="right_152" type="car" route="right" depart="433" departSpeed="5"/>
    <vehicle id="up_153" type="car" route="up" depart="433" departSpeed="5"/>
    <vehicle id="left_154" type="car" route="left" depart="438" departSpeed="5"/>
    <vehicle id="down_155" type="car" route="down" depart="438" departSpeed="5"/>
    <vehicle id="up_156" type="car" route="up" depart="439" departSpeed="5"/>
    <vehicle id="left_157" type="car" route="left" depart="440" departSpeed="5"/>
    <vehicle id="down_158" type="car" route="down" depart="442" departSpeed="5"/>
    <vehicle id="right_159" type="car" route="right" depart="454" departSpeed="5"/>
    <vehicle id="right_160" type="car" route="right" depart="457" departSpeed="5"/>
    <vehicle id="up_161" type="car" route="up" depart="459" departSpeed="5"/>
    <vehicle id="left_162" type="car" route="left" depart="461" departSpeed="5"/>
    <vehicle id="right_163" type="car" route="right" depart="462" departSpeed="5"/>
    <vehicle id="up_164" type="car" route="up" depart="462" departSpeed="5"/>
    <vehicle id="left_165" type="car" route="left" depart="464" departSpeed="5"/>
    <vehicle id="left_166" type="car" route="left" depart="465" departSpeed="5"/>
    <vehicle id="left_167" type="car" route="left" depart="466" departSpeed="5"/>
    <vehicle id="up_168" type="car" route="up" depart="466" departSpeed="5"/>
    <vehicle id="up_169" type="car" route="up" depart="467" departSpeed="5"/>
    <vehicle id="down_170" type="car" route="down" depart="468" departSpeed="5"/>
    <vehicle id="up_171" type="car" route="up" depart="469" departSpeed="5"/>
    <vehicle id="left_172" type="car" route="left" depart="472" departSpeed="5"/>
    <vehicle id="left_173" type="car" route="left" depart="476" departSpeed="5"/>
    <vehicle id="up_174" type="car" route="up" depart="483" departSpeed="5"/>
    <vehicle id="right_175" type="car" route="right" depart="487" departSpeed="5"/>
    <vehicle id="left_176" type="car" route="left" depart="488" departSpeed="5"/>
    <vehicle id="down_177" type="car" route="down" depart="489" departSpeed="5"/>
    <vehicle id="right_178" type="car" route="right" depart="491" departSpeed="5"/>
    <vehicle id="down_179" type="car" route="down" depart="492" departSpeed="5"/>
    <vehicle id="right_180" type="car" route="right" depart="499" departSpeed="5"/>
    <vehicle id="left_181" type="car" route="left" depart="499" departSpeed="5"/>
    <vehicle id="up_182" type="car" route="up" depart="499" departSpeed="5"/>
    <vehicle id="down_183" type="car" route="down" depart="500" departSpeed="5"/>
    <vehicle id="right_184" type="car" route="right" depart="502" departSpeed="5"/>
    <vehicle id="left_185" type="car" route="left" depart="504" departSpeed="5"/>
    <vehicle id="left_186" type="car" route="left" depart="507" departSpeed="5"/>
    <vehicle id="down_187" type="car" route="down" depart="509" departSpeed="5"/>
    <vehicle id="right_188" type="car" route="right" depart="511" departSpeed="5"/>
    <vehicle id="down_189" type="car" route="down" depart="513" departSpeed="5"/>
    <vehicle id="right_190" type="car" route="right" depart="518" departSpeed="5"/>
    <vehicle id="up_191" type="car" route="up" depart="526" departSpeed="5"/>
    <vehicle id="left_192" type="car" route="left" depart="527" departSpeed="5"/>
    <vehicle id="left_193" type="car" route="left" depart="529" departSpeed="5"/>
    <vehicle id="up_194" type="car" route="up" depart="532" departSpeed="5"/>
    <vehicle id="down_195" type="car" route="down" depart="533" departSpeed="5"/>
    <vehicle id="right_196" type="car" route="right" depart="538" departSpeed="5"/>
    <vehicle id="left_197" type="car" route="left" depart="538" departSpeed="5"/>
    <vehicle id="left_198" type="car" route="left" depart="540" departSpeed="5"/>
    <vehicle id="left_199" type="car" route="left" depart="541" departSpeed="5"/>
    <vehicle id="down_200" type="car" route="down" depart="543" departSpeed="5"/>
    <vehicle id="up_201" type="car" route="up" depart="543" departSpeed="5"/>
    <vehicle id="down_202" type="car" route="down" depart="544" departSpeed="5"/>
    <vehicle id="right_203" type="car" route="right" depart="549" departSpeed="5"/>
    <vehicle id="up_204" type="car" route="up" depart="550" departSpeed="5"/>
    <vehicle id="left_205" type="car" route="left" depart="554" departSpeed="5"/>
    <vehicle id="down_206" type="car" route="down" depart="555" departSpeed="5"/>
    <vehicle id="up_207" type="car" route="up" depart="557" departSpeed="5"/>
    <vehicle id="down_208" type="car" route="down" depart="559" departSpeed="5"/>
    <vehicle id="up_209" type="car" route="up" depart="560" departSpeed="5"/>
    <vehicle id="down_210" type="car" route="down" depart="562" departSpeed="5"/>
    <vehicle id="right_211" type="car" route="right" depart="563" departSpeed="5"/>
    <vehicle id="up_212" type="car" route="up" depart="563" departSpeed="5"/>
    <vehicle id="up_213" type="car" route="up" depart="567" departSpeed="5"/>
    <vehicle id="up_214" type="car" route="up" depart="573" departSpeed="5"/>
    <vehicle id="right_215" type="car" route="right" depart="576" departSpeed="5"/>
    <vehicle id="left_216" type="car" route="left" depart="580" departSpeed="5"/>
    <vehicle id="down_217" type="car" route="down" depart="584" departSpeed="5"/>
    <vehicle id="up_218" type="car" route="up" depart="587" departSpeed="5"/>
    <vehicle id="left_219" type="car" route="left" depart="591" departSpeed="5"/>
    <vehicle id="up_220" type="car" route="up" depart="600" departSpeed="5"/>
    <vehicle id="left_221" type="car" route="left" depart="601" departSpeed="5"/>
    <vehicle id="up_222" type="car" route="up" depart="601" departSpeed="5"/>
    <vehicle id="up_223" type="car" route="up" depart="610" departSpeed="5"/>
    <vehicle id="down_224" type="car" route="down" depart="615" departSpeed="5"/>
    <vehicle id="right_225" type="car" route="right" depart="616" departSpeed="5"/>
    <vehicle id="up_226" type="car" route="up" depart="619" departSpeed="5"/>
    <vehicle id="down_227" type="car" route="down" depart="620" departSpeed="5"/>
    <vehicle id="down_228" type="car" route="down" depart="621" departSpeed="5"/>
    <vehicle id="up_229" type="car" route="up" depart="623" departSpeed="5"/>
    <vehicle id="left_230" type="car" route="left" depart="624" departSpeed="5"/>
    <vehicle id="up_231" type="car" route="up" depart="624" departSpeed="5"/>
    <vehicle id="down_232" type="car" route="down" depart="630" departSpeed="5"/>
    <vehicle id="left_233" type="car" route="left" depart="632" departSpeed="5"/>
    <vehicle id="right_234" type="car" route="right" depart="634" departSpeed="5"/>
    <vehicle id="up_235" type="car" route="up" depart="637" departSpeed="5"/>
    <vehicle id="down_236" type="car" route="down" depart="638" departSpeed="5"/>
    <vehicle id="up_237" type="car" route="up" depart="639" departSpeed="5"/>
    <vehicle id="right_238" type="car" route="right" depart="641" departSpeed="5"/>
    <vehicle id="up_239" type="car" route="up" depart="644" departSpeed="5"/>
    <vehicle id="left_240" type="car" route="left" depart="645" departSpeed="5"/>
    <vehicle id="right_241" type="car" route="right" depart="647" departSpeed="5"/>
    <vehicle id="right_242" type="car" route="right" depart="648" departSpeed="5"/>
    <vehicle id="up_243" type="car" route="up" depart="657" departSpeed="5"/>
    <vehicle id="right_244" type="car" route="right" depart="659" departSpeed="5"/>
    <vehicle id="left_245" type="car" route="left" depart="659" departSpeed="5"/>
    <vehicle id="down_246" type="car" route="down" depart="662" departSpeed="5"/>
    <vehicle id="right_247" type="car" route="right" depart="667" departSpeed="5"/>
    <vehicle id="up_248" type="car" route="up" depart="669" departSpeed="5"/>
    <vehicle id="down_249" type="car" route="down" depart="671" departSpeed="5"/>
    <vehicle id="down_250" type="car" route="down" depart="675" departSpeed="5"/>
    <vehicle id="right_251" type="car" route="right" depart="676" departSpeed="5"/>
    <vehicle id="down_252" type="car" route="down" depart="676" departSpeed="5"/>
    <vehicle id="down_253" type="car" route="down" depart="683" departSpeed="5"/>
    <vehicle id="up_254" type="car" route="up" depart="686" departSpeed="5"/>
    <vehicle id="right_255" type="car" route="right" depart="688" departSpeed="5"/>
    <vehicle id="right_256" type="car" route="right" depart="702" departSpeed="5"/>
    <vehicle id="up_257" type="car" route="up" depart="709" departSpeed="5"/>
    <vehicle id="left_258" type="car" route="left" depart="715" departSpeed="5"/>
    <vehicle id="right_259" type="car" route="right" depart="717" departSpeed="5"/>
    <vehicle id="up_260" type="car" route="up" depart="726" departSpeed="5"/>
    <vehicle id="right_261" type="car" route="right" depart="731" departSpeed="5"/>
    <vehicle id="down_262" type="car" route="down" depart="731" departSpeed="5"/>
    <vehicle id="right_263" type="car" route="right" depart="732" departSpeed="5"/>
    <vehicle id="up_264" type="car" route="up" depart="732" departSpeed="5"/>
    <vehicle id="up_265" type="car" route="up" depart="733" departSpeed="5"/>
    <vehicle id="up_266" type="car" route="up" depart="740" departSpeed="5"/>
    <vehicle id="right_267" type="car" route="right" depart="741" departSpeed="5"/>
    <vehicle id="right_268" type="car" route="right" depart="744" departSpeed="5"/>
    <vehicle id="up_269" type="car" route="up" depart="746" departSpeed="5"/>
    <vehicle id="left_270" type="car" route="left" depart="748" departSpeed="5"/>
    <vehicle id="right_271" type="car" route="right" depart="753" departSpeed="5"/>
    <vehicle id="right_272" type="car" route="right" depart="754" departSpeed="5"/>
    <vehicle id="left_273" type="car" route="left" depart="756" departSpeed="5"/>
    <vehicle id="right_274" type="car" route="right" depart="757" departSpeed="5"/>
    <vehicle id="left_275" type="car" route="left" depart="757" departSpeed="5"/>
    <vehicle id="right_276" type="car" route="right" depart="758" departSpeed="5"/>
    <vehicle id="up_277" type="car" route="up" depart="758" departSpeed="5"/>
    <vehicle id="down_278" type="car" route="down" depart="760" departSpeed="5"/>
    <vehicle id="up_279" type="car" route="up" depart="760" departSpeed="5"/>
    <vehicle id="down_280" type="car" route="down" depart="763" departSpeed="5"/>
    <vehicle id="down_281" type="car" route="down" depart="765" departSpeed="5"/>
    <vehicle id="left_282" type="car" route="left" depart="767" departSpeed="5"/>
    <vehicle id="right_283" type="car" route="right" depart="768" departSpeed="5"/>
    <vehicle id="down_284" type="car" route="down" depart="776" departSpeed="5"/>
    <vehicle id="down_285" type="car" route="down" depart="780" departSpeed="5"/>
    <vehicle id="up_286" type="car" route="up" depart="780" departSpeed="5"/>
    <vehicle id="up_287" type="car" route="up" depart="781" departSpeed="5"/>
    <vehicle id="left_288" type="car" route="left" depart="785" departSpeed="5"/>
    <vehicle id="right_289" type="car" route="right" depart="788" departSpeed="5"/>
    <vehicle id="left_290" type="car" route="left" depart="791" departSpeed="5"/>
    <vehicle id="down_291" type="car" route="down" depart="791" departSpeed="5"/>
    <vehicle id="right_292" type="car" route="right" depart="798" departSpeed="5"/>
    <vehicle id="down_293" type="car" route="down" depart="800" departSpeed="5"/>
    <vehicle id="right_294" type="car" route="right" depart="802" departSpeed="5"/>
    <vehicle id="up_295" type="car" route="up" depart="809" departSpeed="5"/>
    <vehicle id="left_296" type="car" route="left" depart="810" departSpeed="5"/>
    <vehicle id="up_297" type="car" route="up" depart="812" departSpeed="5"/>
    <vehicle id="up_298" type="car" route="up" depart="816" departSpeed="5"/>
    <vehicle id="up_299" type="car" route="up" depart="818" departSpeed="5"/>
    <vehicle id="up_300" type="car" route="up" depart="819" departSpeed="5"/>
    <vehicle id="up_301" type="car" route="up" depart="821" departSpeed="5"/>
    <vehicle id="right_302" type="car" route="right" depart="825" departSpeed="5"/>
    <vehicle id="down_303" type="car" route="down" depart="832" departSpeed="5"/>
    <vehicle id="up_304" type="car" route="up" depart="834" departSpeed="5"/>
    <vehicle id="right_305" type="car" route="right" depart="837" departSpeed="5"/>
    <vehicle id="up_306" type="car" route="up" depart="837" departSpeed="5"/>
    <vehicle id="down_307" type="car" route="down" depart="839" departSpeed="5"/>
    <vehicle id="up_308" type="car" route="up" depart="850" departSpeed="5"/>
    <vehicle id="left_309" type="car" route="left" depart="852" departSpeed="5"/>
    <vehicle id="right_310" type="car" route="right" depart="853" departSpeed="5"/>
    <vehicle id="right_311" type="car" route="right" depart="855" departSpeed="5"/>
    <vehicle id="up_312" type="car" route="up" depart="859" departSpeed="5"/>
    <vehicle id="down_313" type="car" route="down" depart="861" departSpeed="5"/>
    <vehicle id="right_314" type="car" route="right" depart="864" departSpeed="5"/>
    <vehicle id="left_315" type="car" route="left" depart="869" departSpeed="5"/>
    <vehicle id="left_316" type="car" route="left" depart="871" departSpeed="5"/>
    <vehicle id="right_317" type="car" route="right" depart="872" departSpeed="5"/>
    <vehicle id="up_318" type="car" route="up" depart="876" departSpeed="5"/>
    <vehicle id="down_319" type="car" route="down" depart="878" departSpeed="5"/>
    <vehicle id="down_320" type="car" route="down" depart="880" departSpeed="5"/>
    <vehicle id="up_321" type="car" route="up" depart="880" departSpeed="5"/>
    <vehicle id="down_322" type="car" route="down" depart="881" departSpeed="5"/>
    <vehicle id="right_323" type="car" route="right" depart="882" departSpeed="5"/>
    <vehicle id="right_324" type="car" route="right" depart="883" departSpeed="5"/>
    <vehicle id="right_325" type="car" route="right" depart="886" departSpeed="5"/>
    <vehicle id="right_326" type="car" route="right" depart="887" departSpeed="5"/>
    <vehicle id="left_327" type="car" route="left" depart="888" departSpeed="5"/>
    <vehicle id="left_328" type="car" route="left" depart="894" departSpeed="5"/>
    <vehicle id="down_329" type="car" route="down" depart="894" departSpeed="5"/>
    <vehicle id="up_330" type="car" route="up" depart="894" departSpeed="5"/>
    <vehicle id="left_331" type="car" route="left" depart="895" departSpeed="5"/>
    <vehicle id="down_332" type="car" route="down" depart="896" departSpeed="5"/>
    <vehicle id="right_333" type="car" route="right" depart="901" departSpeed="5"/>
    <vehicle id="right_334" type="car" route="right" depart="906" departSpeed="5"/>
    <vehicle id="right_335" type="car" route="right" depart="908" departSpeed="5"/>
    <vehicle id="right_336" type="car" route="right" depart="916" departSpeed="5"/>
    <vehicle id="up_337" type="car" route="up" depart="916" departSpeed="5"/>
    <vehicle id="left_338" type="car" route="left" depart="920" departSpeed="5"/>
    <vehicle id="left_339" type="car" route="left" depart="925" departSpeed="5"/>
    <vehicle id="up_340" type="car" route="up" depart="928" departSpeed="5"/>
    <vehicle id="up_341" type="car" route="up" depart="935" departSpeed="5"/>
    <vehicle id="right_342" type="car" route="right" depart="936" departSpeed="5"/>
    <vehicle id="right_343" type="car" route="right" depart="939" departSpeed="5"/>
    <vehicle id="up_344" type="car" route="up" depart="940" departSpeed="5"/>
    <vehicle id="right_345" type="car" route="right" depart="941" departSpeed="5"/>
    <vehicle id="left_346" type="car" route="left" depart="942" departSpeed="5"/>
    <vehicle id="up_347" type="car" route="up" depart="947" departSpeed="5"/>
    <vehicle id="right_348" type="car" route="right" depart="949" departSpeed="5"/>
    <vehicle id="left_349" type="car" route="left" depart="950" departSpeed="5"/>
    <vehicle id="up_350" type="car" route="up" depart="953" departSpeed="5"/>
    <vehicle id="left_351" type="car" route="left" depart="960" departSpeed="5"/>
    <vehicle id="right_352" type="car" route="right" depart="961" departSpeed="5"/>
    <vehicle id="right_353" type="car" route="right" depart="962" departSpeed="5"/>
    <vehicle id="right_354" type="car" route="right" depart="968" departSpeed="5"/>
    <vehicle id="up_355" type="car" route="up" depart="968" departSpeed="5"/>
    <vehicle id="right_356" type="car" route="right" depart="969" departSpeed="5"/>
    <vehicle id="left_357" type="car" route="left" depart="970" departSpeed="5"/>
    <vehicle id="up_358" type="car" route="up" depart="972" departSpeed="5"/>
    <vehicle id="right_359" type="car" route="right" depart="973" departSpeed="5"/>
    <vehicle id="up_360" type="car" route="up" depart="973" departSpeed="5"/>
    <vehicle id="down_361" type="car" route="down" depart="974" departSpeed="5"/>
    <vehicle id="left_362" type="car" route="left" depart="975" departSpeed="5"/>
    <vehicle id="up_363" type="car" route="up" depart="976" departSpeed="5"/>
    <vehicle id="right_364" type="car" route="right" depart="977" departSpeed="5"/>
    <vehicle id="up_365" type="car" route="up" depart="978" departSpeed="5"/>
    <vehicle id="right_366" type="car" route="right" depart="983" departSpeed="5"/>