<routes>
            <vType id="car" accel="1.0" decel="4.5" sigma="0.7" length="5" minGap="3" maxSpeed="15" guiShape="passenger"/>

            <route id="right" edges="1i 2o" />
            <route id="left" edges="2i 1o" />
            <route id="down" edges="4i 3o" />
            <route id="up" edges="3i 4o" />
    <vehicle id="left_0" type="car" route="left" depart="1" departSpeed="5"/>
    <vehicle id="down_1" type="car" route="down" depart="2" departSpeed="5"/>
    <vehicle id="down_2" type="car" route="down" depart="3" departSpeed="5"/>
    <vehicle id="up_3" type="car" route="up" depart="5" departSpeed="5"/>
    <vehicle id="down_4" type="car" route="down" depart="8" departSpeed="5"/>
    <vehicle id="up_5" type="car" route="up" depart="13" departSpeed="5"/>
    <vehicle id="down_6" type="car" route="down" depart="14" departSpeed="5"/>
    <vehicle id="down_7" type="car" route="down" depart="19" departSpeed="5"/>
    <vehicle id="up_8" type="car" route="up" depart="26" departSpeed="5"/>
    <vehicle id="right_9" type="car" route="right" depart="28" departSpeed="5"/>
    <vehicle id="right_10" type="car" route="right" depart="29" departSpeed="5"/>
    <vehicle id="left_11" type="car" route="left" depart="31" departSpeed="5"/>
    <vehicle id="right_12" type="car" route="right" depart="32" departSpeed="5"/>
    <vehicle id="down_13" type="car" route="down" depart="34" departSpeed="5"/>
    <vehicle id="left_14" type="car" route="left" depart="35" departSpeed="5"/>
    <vehicle id="left_15" type="car" route="left" depart="37" departSpeed="5"/>
    <vehicle id="up_16" type="car" route="up" depart="38" departSpeed="5"/>
    <vehicle id="right_17" type="car" route="right" depart="39" departSpeed="5"/>
    <vehicle id="up_18" type="car" route="up" depart="41" departSpeed="5"/>
    <vehicle id="down_19" type="car" route="down" depart="46" departSpeed="5"/>
    <vehicle id="left_20" type="car" route="left" depart="47" departSpeed="5"/>
    <vehicle id="down_21" type="car" route="down" depart="48" departSpeed="5"/>
    <vehicle id="right_22" type="car" route="right" depart="55" departSpeed="5"/>
    <vehicle id="left_23" type="car" route="left" depart="56" departSpeed="5"/>
    <vehicle id="up_24" type="car" route="up" depart="61" departSpeed="5"/>
    <vehicle id="up_25" type="car" route="up" depart="62" departSpeed="5"/>
    <vehicle id="up_26" type="car" route="up" depart="66" departSpeed="5"/>
    <vehicle id="right_27" type="car" route="right" depart="69" departSpeed="5"/>
    <vehicle id="down_28" type="car" route="down" depart="71" departSpeed="5"/>
    <vehicle id="down_29" type="car" route="down" depart="74" departSpeed="5"/>
    <vehicle id="down_30" type="car" route="down" depart="77" departSpeed="5"/>
    <vehicle id="down_31" type="car" route="down" depart="80" departSpeed="5"/>
    <vehicle id="down_32" type="car" route="down" depart="82" departSpeed="5"/>
    <vehicle id="right_33" type="car" route="right" depart="83" departSpeed="5"/>
    <vehicle id="down_34" type="car" route="down" depart="83" departSpeed="5"/>
    <vehicle id="right_35" type="car" route="right" depart="86" departSpeed="5"/>
    <vehicle id="left_36" type="car" route="left" depart="87" departSpeed="5"/>
    <vehicle id="up_37" type="car" route="up" depart="87" departSpeed="5"/>
    <vehicle id="down_38" type="car" route="down" depart="90" departSpeed="5"/>
    <vehicle id="up_39" type="car" route="up" depart="91" departSpeed="5"/>
    <vehicle id="down_40" type="car" route="down" depart="92" departSpeed="5"/>
    <vehicle id="right_41" type="car" route="right" depart="94" departSpeed="5"/>
    <vehicle id="down_42" type="car" route="down" depart="94" departSpeed="5"/>
    <vehicle id="up_43" type="car" route="up" depart="95" departSpeed="5"/>
    <vehicle id="left_44" type="car" route="left" depart="96" departSpeed="5"/>
    <vehicle id="down_45" type="car" route="down" depart="98" departSpeed="5"/>
    <vehicle id="up_46" type="car" route="up" depart="99" departSpeed="5"/>
    <vehicle id="down_47" type="car" route="down" depart="100" departSpeed="5"/>
    <vehicle id="up_48" type="car" route="up" depart="105" departSpeed="5"/>
    <vehicle id="up_49" type="car" route="up" depart="109" departSpeed="5"/>
    <vehicle id="left_50" type="car" route="left" depart="111" departSpeed="5"/>
    <vehicle id="down_51" type="car" route="down" depart="111" departSpeed="5"/>
    <vehicle id="up_52" type="car" route="up" depart="118" departSpeed="5"/>
    <vehicle id="right_53" type="car" route="right" depart="120" departSpeed="5"/>
    <vehicle id="right_54" type="car" route="right" depart="121" departSpeed="5"/>
    <vehicle id="down_55" type="car" route="down" depart="122" departSpeed="5"/>
    <vehicle id="left_56" type="car" route="left" depart="126" departSpeed="5"/>
    <vehicle id="up_57" type="car" route="up" depart="127" departSpeed="5"/>
    <vehicle id="down_58" type="car" route="down" depart="129" departSpeed="5"/>
    <vehicle id="down_59" type="car" route="down" depart="131" departSpeed="5"/>
    <vehicle id="up_60" type="car" route="up" depart="151" departSpeed="5"/>
    <vehicle id="left_61" type="car" route="left" depart="153" departSpeed="5"/>
    <vehicle id="down_62" type="car" route="down" depart="156" departSpeed="5"/>
    <vehicle id="up_63" type="car" route="up" depart="159" departSpeed="5"/>
    <vehicle id="right_64" type="car" route="right" depart="160" departSpeed="5"/>
    <vehicle id="left_65" type="car" route="left" depart="161" departSpeed="5"/>
    <vehicle id="down_66" type="car" route="down" depart="162" departSpeed="5"/>
    <vehicle id="down_67" type="car" route="down" depart="163" departSpeed="5"/>
    <vehicle id="up_68" type="car" route="up" depart="165" departSpeed="5"/>
    <vehicle id="down_69" type="car" route="down" depart="167" departSpeed="5"/>
    <vehicle id="left_70" type="car" route="left" depart="169" departSpeed="5"/>
    <vehicle id="down_71" type="car" route="down" depart="170" departSpeed="5"/>
    <vehicle id="left_72" type="car" route="left" depart="171" departSpeed="5"/>
    <vehicle id="right_73" type="car" route="right" depart="173" departSpeed="5"/>
    <vehicle id="down_74" type="car" route="down" depart="173" departSpeed="5"/>
    <vehicle id="up_75" type="car" route="up" depart="175" departSpeed="5"/>
    <vehicle id="right_76" type="car" route="right" depart="178" departSpeed="5"/>
    <vehicle id="up_77" type="car" route="up" depart="179" departSpeed="5"/>
    <vehicle id="right_78" type="car" route="right" depart="186" departSpeed="5"/>
    <vehicle id="right_79" type="car" route="right" depart="187" departSpeed="5"/>
    <vehicle id="up_80" type="car" route="up" depart="188" departSpeed="5"/>
    <vehicle id="right_81" type="car" route="right" depart="189" departSpeed="5"/>
    <vehicle id="right_82" type="car" route="right" depart="191" departSpeed="5"/>
    <vehicle id="down_83" type="car" route="down" depart="193" departSpeed="5"/>
    <vehicle id="right_84" type="car" route="right" depart="194" departSpeed="5"/>
    <vehicle id="left_85" type="car" route="left" depart="195" departSpeed="5"/>
    <vehicle id="down_86" type="car" route="down" depart="197" departSpeed="5"/>
    <vehicle id="up_87" type="car" route="up" depart="203" departSpeed="5"/>
    <vehicle id="left_88" type="car" route="left" depart="206" departSpeed="5"/>
    <vehicle id="left_89" type="car" route="left" depart="212" departSpeed="5"/>
    <vehicle id="left_90" type="car" route="left" depart="215" departSpeed="5"/>
    <vehicle id="down_91" type="car" route="down" depart="216" departSpeed="5"/>
    <vehicle id="up_92" type="car" route="up" depart="216" departSpeed="5"/>
    <vehicle id="right_93" type="car" route="right" depart="222" departSpeed="5"/>
    <vehicle id="right_94" type="car" route="right" depart="235" departSpeed="5"/>
    <vehicle id="up_95" type="car" route="up" depart="236" departSpeed="5"/>
    <vehicle id="down_96" type="car" route="down" depart="238" departSpeed="5"/>
    <vehicle id="down_97" type="car" route="down" depart="241" departSpeed="5"/>
    <vehicle id="up_98" type="car" route="up" depart="241" departSpeed="5"/>
    <vehicle id="right_99" type="car" route="right" depart="242" departSpeed="5"/>
    <vehicle id="right_100" type="car" route="right" depart="244" departSpeed="5"/>
    <vehicle id="up_101" type="car" route="up" depart="244" departSpeed="5"/>
    <vehicle id="right_102" type="car" route="right" depart="245" departSpeed="5"/>
    <vehicle id="left_103" type="car" route="left" depart="245" departSpeed="5"/>
    <vehicle id="down_104" type="car" route="down" depart="249" departSpeed="5"/>
    <vehicle id="right_105" type="car" route="right" depart="250" departSpeed="5"/>
    <vehicle id="down_106" type="car" route="down" depart="250" departSpeed="5"/>
    <vehicle id="down_107" type="car" route="down" depart="251" departSpeed="5"/>
    <vehicle id="up_108" type="car" route="up" depart="251" departSpeed="5"/>
    <vehicle id="left_109" type="car" route="left" depart="257" departSpeed="5"/>
    <vehicle id="up_110" type="car" route="up" depart="258" departSpeed="5"/>
    <vehicle id="down_111" type="car" route="down" depart="259" departSpeed="5"/>
    <vehicle id="down_112" type="car" route="down" depart="260" departSpeed="5"/>
    <vehicle id="left_113" type="car" route="left" depart="264" departSpeed="5"/>
    <vehicle id="left_114" type="car" route="left" depart="266" departSpeed="5"/>
    <vehicle id="down_115" type="car" route="down" depart="266" departSpeed="5"/>
    <vehicle id="left_116" type="car" route="left" depart="274" departSpeed="5"/>
    <vehicle id="down_117" type="car" route="down" depart="274" departSpeed="5"/>
    <vehicle id="down_118" type="car" route="down" depart="275" departSpeed="5"/>
    <vehicle id="left_119" type="car" route="left" depart="276" departSpeed="5"/>
    <vehicle id="down_120" type="car" route="down" depart="276" departSpeed="5"/>
    <vehicle id="right_121" type="car" route="right" depart="278" departSpeed="5"/>
    <vehicle id="left_122" type="car" route="left" depart="278" departSpeed="5"/>
    <vehicle id="up_123" type="car" route="up" depart="283" departSpeed="5"/>
    <vehicle id="left_124" type="car" route="left" depart="284" departSpeed="5"/>
    <vehicle id="left_125" type="car" route="left" depart="286" departSpeed="5"/>
    <vehicle id="up_126" type="car" route="up" depart="289" departSpeed="5"/>
    <vehicle id="up_127" type="car" route="up" depart="299" departSpeed="5"/>
    <vehicle id="left_128" type="car" route="left" depart="300" departSpeed="5"/>
    <vehicle id="up_129" type="car" route="up" depart="300" departSpeed="5"/>
    <vehicle id="right_130" type="car" route="right" depart="310" departSpeed="5"/>
    <vehicle id="right_131" type="car" route="right" depart="311" departSpeed="5"/>
    <vehicle id="down_132" type="car" route="down" depart="311" departSpeed="5"/>
    <vehicle id="right_133" type="car" route="right" depart="315" departSpeed="5"/>
    <vehicle id="down_134" type="car" route="down" depart="315" departSpeed="5"/>
    <vehicle id="right_135" type="car" route="right" depart="319" departSpeed="5"/>
    <vehicle id="right_136" type="car" route="right" depart="320" departSpeed="5"/>
    <vehicle id="down_137" type="car" route="down" depart="320" departSpeed="5"/>
    <vehicle id="left_138" type="car" route="left" depart="332" departSpeed="5"/>
    <vehicle id="up_139" type="car" route="up" depart="333" departSpeed="5"/>
    <vehicle id="right_140" type="car" route="right" depart="334" departSpeed="5"/>
    <vehicle id="down_141" type="car" route="down" depart="334" departSpeed="5"/>
    <vehicle id="right_142" type="car" route="right" depart="337" departSpeed="5"/>
    <vehicle id="right_143" type="car" route="right" depart="338" departSpeed="5"/>
    <vehicle id="right_144" type="car" route="right" depart="341" departSpeed="5"/>
    <vehicle id="down_145" type="car" route="down" depart="345" departSpeed="5"/>
    <vehicle id="up_146" type="car" route="up" depart="345" departSpeed="5"/>
    <vehicle id="right_147" type="car" route="right" depart="346" departSpeed="5"/>
    <vehicle id="left_148" type="car" route="left" depart="351" departSpeed="5"/>
    <vehicle id="up_149" type="car" route="up" depart="361" departSpeed="5"/>
    <vehicle id="left_150" type="car" route="left" depart="362" departSpeed="5"/>
    <vehicle id="up_151" type="car" route="up" depart="362" departSpeed="5"/>
    <vehicle id="right_152" type="car" route="right" depart="363" departSpeed="5"/>
    <vehicle id="up_153" type="car" route="up" depart="370" departSpeed="5"/>
    <vehicle id="up_154" type="car" route="up" depart="373" departSpeed="5"/>
    <vehicle id="left_155" type="car" route="left" depart="375" departSpeed="5"/>
    <vehicle id="right_156" type="car" route="right" depart="376" departSpeed="5"/>
    <vehicle id="left_157" type="car" route="left" depart="377" departSpeed="5"/>
    <vehicle id="right_158" type="car" route="right" depart="379" departSpeed="5"/>
    <vehicle id="up_159" type="car" route="up" depart="379" departSpeed="5"/>
    <vehicle id="left_160" type="car" route="left" depart="380" departSpeed="5"/>
    <vehicle id="up_161" type="car" route="up" depart="382" departSpeed="5"/>
    <vehicle id="left_162" type="car" route="left" depart="384" departSpeed="5"/>
    <vehicle id="right_163" type="car" route="right" depart="386" departSpeed="5"/>
    <vehicle id="down_164" type="car" route="down" depart="386" departSpeed="5"/>
    <vehicle id="up_165" type="car" route="up" depart="390" departSpeed="5"/>
    <vehicle id="left_166" type="car" route="left" depart="392" departSpeed="5"/>
    <vehicle id="down_167" type="car" route="down" depart="394" departSpeed="5"/>
    <vehicle id="right_168" type="car" route="right" depart="397" departSpeed="5"/>
    <vehicle id="left_169" type="car" route="left" depart="397" departSpeed="5"/>
    <vehicle id="down_170" type="car" route="down" depart="397" departSpeed="5"/>
    <vehicle id="left_171" type="car" route="left" depart="401" departSpeed="5"/>
    <vehicle id="right_172" type="car" route="right" depart="403" departSpeed="5"/>
    <vehicle id="down_173" type="car" route="down" depart="403" departSpeed="5"/>
    <vehicle id="down_174" type="car" route="down" depart="415" departSpeed="5"/>
    <vehicle id="left_175" type="car" route="left" depart="416" departSpeed="5"/>
    <vehicle id="down_176" type="car" route="down" depart="421" departSpeed="5"/>
    <vehicle id="down_177" type="car" route="down" depart="424" departSpeed="5"/>
    <vehicle id="down_178" type="car" route="down" depart="425" departSpeed="5"/>
    <vehicle id="right_179" type="car" route="right" depart="431" departSpeed="5"/>
    <vehicle id="left_180" type="car" route="left" depart="431" departSpeed="5"/>
    <vehicle id="down_181" type="car" route="down" depart="432" departSpeed="5"/>
    <vehicle id="right_182" type="car" route="right" depart="437" departSpeed="5"/>
    <vehicle id="left_183" type="car" route="left" depart="438" departSpeed="5"/>
    <vehicle id="right_184" type="car" route="right" depart="447" departSpeed="5"/>
    <vehicle id="down_185" type="car" route="down" depart="450" departSpeed="5"/>
    <vehicle id="up_186" type="car" route="up" depart="455" departSpeed="5"/>
    <vehicle id="left_187" type="car" route="left" depart="457" departSpeed="5"/>
    <vehicle id="up_188" type="car" route="up" depart="459" departSpeed="5"/>
    <vehicle id="up_189" type="car" route="up" depart="460" departSpeed="5"/>
    <vehicle id="up_190" type="car" route="up" depart="462" departSpeed="5"/>
    <vehicle id="down_191" type="car" route="down" depart="465" departSpeed="5"/>
    <vehicle id="up_192" type="car" route="up" depart="465" departSpeed="5"/>
    <vehicle id="right_193" type="car" route="right" depart="468" departSpeed="5"/>
    <vehicle id="up_194" type="car" route="up" depart="469" departSpeed="5"/>
    <vehicle id="up_195" type="car" route="up" depart="470" departSpeed="5"/>
    <vehicle id="down_196" type="car" route="down" depart="471" departSpeed="5"/>
    <vehicle id="right_197" type="car" route="right" depart="477" departSpeed="5"/>
    <vehicle id="left_198" type="car" route="left" depart="483" departSpeed="5"/>
    <vehicle id="down_199" type="car" route="down" depart="483" departSpeed="5"/>
    <vehicle id="down_200" type="car" route="down" depart="484" departSpeed="5"/>
    <vehicle id="left_201" type="car" route="left" depart="488" departSpeed="5"/>
    <vehicle id="up_202" type="car" route="up" depart="489" departSpeed="5"/>
    <vehicle id="down_203" type="car" route="down" depart="492" departSpeed="5"/>
    <vehicle id="left_204" type="car" route="left" depart="494" departSpeed="5"/>
    <vehicle id="right_205" type="car" route="right" depart="496" departSpeed="5"/>
    <vehicle id="left_206" type="car" route="left" depart="496" departSpeed="5"/>
    <vehicle id="up_207" type="car" route="up" depart="496" departSpeed="5"/>
    <vehicle id="up_208" type="car" route="up" depart="500" departSpeed="5"/>
    <vehicle id="left_209" type="car" route="left" depart="504" departSpeed="5"/>
    <vehicle id="right_210" type="car" route="right" depart="505" departSpeed="5"/>
    <vehicle id="down_211" type="car" route="down" depart="507" departSpeed="5"/>
    <vehicle id="right_212" type="car" route="right" depart="514" departSpeed="5"/>
    <vehicle id="left_213" type="car" route="left" depart="516" departSpeed="5"/>
    <vehicle id="up_214" type="car" route="up" depart="520" departSpeed="5"/>
    <vehicle id="down_215" type="car" route="down" depart="522" departSpeed="5"/>
    <vehicle id="left_216" type="car" route="left" depart="523" departSpeed="5"/>
    <vehicle id="left_217" type="car" route="left" depart="527" departSpeed="5"/>
    <vehicle id="down_218" type="car" route="down" depart="529" departSpeed="5"/>
    <vehicle id="down_219" type="car" route="down" depart="531" departSpeed="5"/>
    <vehicle id="down_220" type="car" route="down" depart="532" departSpeed="5"/>
    <vehicle id="down_221" type="car" route="down" depart="535" departSpeed="5"/>
    <vehicle id="down_222" type="car" route="down" depart="537" departSpeed="5"/>
    <vehicle id="right_223" type="car" route="right" depart="541" departSpeed="5"/>
    <vehicle id="left_224" type="car" route="left" depart="543" departSpeed="5"/>
    <vehicle id="up_225" type="car" route="up" depart="548" departSpeed="5"/>
    <vehicle id="right_226" type="car" route="right" depart="549" departSpeed="5"/>
    <vehicle id="right_227" type="car" route="right" depart="550" departSpeed="5"/>
    <vehicle id="right_228" type="car" route="right" depart="554" departSpeed="5"/>
    <vehicle id="left_229" type="car" route="left" depart="559" departSpeed="5"/>
    <vehicle id="right_230" type="car" route="right" depart="562" departSpeed="5"/>
    <vehicle id="up_231" type="car" route="up" depart="563" departSpeed="5"/>
    <vehicle id="left_232" type="car" route="left" depart="565" departSpeed="5"/>
    <vehicle id="down_233" type="car" route="down" depart="571" departSpeed="5"/>
    <vehicle id="left_234" type="car" route="left" depart="577" departSpeed="5"/>
    <vehicle id="right_235" type="car" route="right" depart="585" departSpeed="5"/>
    <vehicle id="right_236" type="car" route="right" depart="587" departSpeed="5"/>
    <vehicle id="right_237" type="car" route="right" depart="588" departSpeed="5"/>
    <vehicle id="left_238" type="car" route="left" depart="591" departSpeed="5"/>
    <vehicle id="up_239" type="car" route="up" depart="592" departSpeed="5"/>
    <vehicle id="right_240" type="car" route="right" depart="594" departSpeed="5"/>
    <vehicle id="left_241" type="car" route="left" depart="594" departSpeed="5"/>
    <vehicle id="left_242" type="car" route="left" depart="597" departSpeed="5"/>
    <vehicle id="right_243" type="car" route="right" depart="598" departSpeed="5"/>
    <vehicle id="up_244" type="car" route="up" depart="599" departSpeed="5"/>
    <vehicle id="up_245" type="car" route="up" depart="600" departSpeed="5"/>
    <vehicle id="right_246" type="car" route="right" depart="605" departSpeed="5"/>
    <vehicle id="left_247" type="car" route="left" depart="606" departSpeed="5"/>
    <vehicle id="up_248" type="car" route="up" depart="608" departSpeed="5"/>
    <vehicle id="left_249" type="car" route="left" depart="610" departSpeed="5"/>
    <vehicle id="left_250" type="car" route="left" depart="611" departSpeed="5"/>
    <vehicle id="up_251" type="car" route="up" depart="611" departSpeed="5"/>
    <vehicle id="right_252" type="car" route="right" depart="612" departSpeed="5"/>
    <vehicle id="down_253" type="car" route="down" depart="615" departSpeed="5"/>
    <vehicle id="left_254" type="car" route="left" depart="621" departSpeed="5"/>
    <vehicle id="down_255" type="car" route="down" depart="622" departSpeed="5"/>
    <vehicle id="up_256" type="car" route="up" depart="625" departSpeed="5"/>
    <vehicle id="right_257" type="car" route="right" depart="628" departSpeed="5"/>
    <vehicle id="left_258" type="car" route="left" depart="630" departSpeed="5"/>
    <vehicle id="down_259" type="car" route="down" depart="633" departSpeed="5"/>
    <vehicle id="left_260" type="car" route="left" depart="637" departSpeed="5"/>
    <vehicle id="up_261" type="car" route="up" depart="637" departSpeed="5"/>
    <vehicle id="right_262" type="car" route="right" depart="640" departSpeed="5"/>
    <vehicle id="left_263" type="car" route="left" depart="640" departSpeed="5"/>
    <vehicle id="up_264" type="car" route="up" depart="641" departSpeed="5"/>
    <vehicle id="right_265" type="car" route="right" depart="642" departSpeed="5"/>
    <vehicle id="up_266" type="car" route="up" depart="642" departSpeed="5"/>
    <vehicle id="up_267" type="car" route="up" depart="643" departSpeed="5"/>
    <vehicle id="left_268" type="car" route="left" depart="648" departSpeed="5"/>
    <vehicle id="right_269" type="car" route="right" depart="654" departSpeed="5"/>
    <vehicle id="up_270" type="car" route="up" depart="655" departSpeed="5"/>
    <vehicle id="left_271" type="car" route="left" depart="657" departSpeed="5"/>
    <vehicle id="down_272" type="car" route="down" depart="657" departSpeed="5"/>
    <vehicle id="down_273" type="car" route="down" depart="658" departSpeed="5"/>
    <vehicle id="left_274" type="car" route="left" depart="659" departSpeed="5"/>
    <vehicle id="left_275" type="car" route="left" depart="662" departSpeed="5"/>
    <vehicle id="down_276" type="car" route="down" depart="663" departSpeed="5"/>
    <vehicle id="down_277" type="car" route="down" depart="664" departSpeed="5"/>
    <vehicle id="left_278" type="car" route="left" depart="665" departSpeed="5"/>
    <vehicle id="down_279" type="car" route="down" depart="665" departSpeed="5"/>
    <vehicle id="up_280" type="car" route="up" depart="665" departSpeed="5"/>
    <vehicle id="down_281" type="car" route="down" depart="666" departSpeed="5"/>
    <vehicle id="left_282" type="car" route="left" depart="670" departSpeed="5"/>
    <vehicle id="up_283" type="car" route="up" depart="671" departSpeed="5"/>
    <vehicle id="left_284" type="car" route="left" depart="673" departSpeed="5"/>
    <vehicle id="left_285" type="car" route="left" depart="675" departSpeed="5"/>
    <vehicle id="down_286" type="car" route="down" depart="675" departSpeed="5"/>
    <vehicle id="down_287" type="car" route="down" depart="678" departSpeed="5"/>
    <vehicle id="right_288" type="car" route="right" depart="681" departSpeed="5"/>
    <vehicle id="left_289" type="car" route="left" depart="682" departSpeed="5"/>
    <vehicle id="down_290" type="car" route="down" depart="682" departSpeed="5"/>
    <vehicle id="down_291" type="car" route="down" depart="685" departSpeed="5"/>
    <vehicle id="down_292" type="car" route="down" depart="688" departSpeed="5"/>
    <vehicle id="left_293" type="car" route="left" depart="689" departSpeed="5"/>
    <vehicle id="left_294" type="car" route="left" depart="690" departSpeed="5"/>
    <vehicle id="right_295" type="car" route="right" depart="695" departSpeed="5"/>
    <vehicle id="right_296" type="car" route="right" depart="706" departSpeed="5"/>
    <vehicle id="right_297" type="car" route="right" depart="709" departSpeed="5"/>
    <vehicle id="down_298" type="car" route="down" depart="710" departSpeed="5"/>
    <vehicle id="down_299" type="car" route="down" depart="712" departSpeed="5"/>
    <vehicle id="left_300" type="car" route="left" depart="716" departSpeed="5"/>
    <vehicle id="down_301" type="car" route="down" depart="716" departSpeed="5"/>
    <vehicle id="down_302" type="car" route="down" depart="717" departSpeed="5"/>
    <vehicle id="left_303" type="car" route="left" depart="720" departSpeed="5"/>
    <vehicle id="down_304" type="car" route="down" depart="724" departSpeed="5"/>
    <vehicle id="right_305" type="car" route="right" depart="725" departSpeed="5"/>
    <vehicle id="left_306" type="car" route="left" depart="726" departSpeed="5"/>
    <vehicle id="down_307" type="car" route="down" depart="728" departSpeed="5"/>
    <vehicle id="left_308" type="car" route="left" depart="730" departSpeed="5"/>
    <vehicle id="right_309" type="car" route="right" depart="731" departSpeed="5"/>
    <vehicle id="down_310" type="car" route="down" depart="731" departSpeed="5"/>
    <vehicle id="right_311" type="car" route="right" depart="735" departSpeed="5"/>
    <vehicle id="left_312" type="car" route="left" depart="735" departSpeed="5"/>
    <vehicle id="down_313" type="car" route="down" depart="736" departSpeed="5"/>
    <vehicle id="down_314" type="car" route="down" depart="737" departSpeed="5"/>
    <vehicle id="down_315" type="car" route="down" depart="738" departSpeed="5"/>
    <vehicle id="right_316" type="car" route="right" depart="739" departSpeed="5"/>
    <vehicle id="left_317" type="car" route="left" depart="740" departSpeed="5"/>
    <vehicle id="left_318" type="car" route="left" depart="753" departSpeed="5"/>
    <vehicle id="right_319" type="car" route="right" depart="755" departSpeed="5"/>
    <vehicle id="down_320" type="car" route="down" depart="757" departSpeed="5"/>
    <vehicle id="left_321" type="car" route="left" depart="760" departSpeed="5"/>
    <vehicle id="right_322" type="car" route="right" depart="767" departSpeed="5"/>
    <vehicle id="left_323" type="car" route="left" depart="767" departSpeed="5"/>
    <vehicle id="up_324" type="car" route="up" depart="767" departSpeed="5"/>
    <vehicle id="right_325" type="car" route="right" depart="769" departSpeed="5"/>
    <vehicle id="left_326" type="car" route="left" depart="770" departSpeed="5"/>
    <vehicle id="down_327" type="car" route="down" depart="773" departSpeed="5"/>
    <vehicle id="up_328" type="car" route="up" depart="774" departSpeed="5"/>
    <vehicle id="left_329" type="car" route="left" depart="778" departSpeed="5"/>
    <vehicle id="up_330" type="car" route="up" depart="778" departSpeed="5"/>
    <vehicle id="right_331" type="car" route="right" depart="781" departSpeed="5"/>
    <vehicle id="left_332" type="car" route="left" depart="783" departSpeed="5"/>
    <vehicle id="up_333" type="car" route="up" depart="784" departSpeed="5"/>
    <vehicle id="right_334" type="car" route="right" depart="787" departSpeed="5"/>
    <vehicle id="right_335" type="car" route="right" depart="791" departSpeed="5"/>
    <vehicle id="left_336" type="car" route="left" depart="794" departSpeed="5"/>
    <vehicle id="left_337" type="car" route="left" depart="797" departSpeed="5"/>
    <vehicle id="up_338" type="car" route="up" depart="797" departSpeed="5"/>
    <vehicle id="down_339" type="car" route="down" depart="802" departSpeed="5"/>
    <vehicle id="right_340" type="car" route="right" depart="806" departSpeed="5"/>
    <vehicle id="left_341" type="car" route="left" depart="806" departSpeed="5"/>
    <vehicle id="left_342" type="car" route="left" depart="808" departSpeed="5"/>
    <vehicle id="left_343" type="car" route="left" depart="809" departSpeed="5"/>
    <vehicle id="up_344" type="car" route="up" depart="810" departSpeed="5"/>
    <vehicle id="left_345" type="car" route="left" depart="812" departSpeed="5"/>
    <vehicle id="up_346" type="car" route="up" depart="815" departSpeed="5"/>
    <vehicle id="left_347" type="car" route="left" depart="821" departSpeed="5"/>
    <vehicle id="right_348" type="car" route="right" depart="822" departSpeed="5"/>
    <vehicle id="left_349" type="car" route="left" depart="825" departSpeed="5"/>
    <vehicle id="right_350" type="car" route="right" depart="826" departSpeed="5"/>
    <vehicle id="down_351" type="car" route="down" depart="826" departSpeed="5"/>
    <vehicle id="down_352" type="car" route="down" depart="831" departSpeed="5"/>
    <vehicle id="down_353" type="car" route="down" depart="835" departSpeed="5"/>
    <vehicle id="left_354" type="car" route="left" depart="836" departSpeed="5"/>
    <vehicle id="up_355" type="car" route="up" depart="838" departSpeed="5"/>
    <vehicle id="down_356" type="car" route="down" depart="839" departSpeed="5"/>
    <vehicle id="right_357" type="car" route="right" depart="841" departSpeed="5"/>
    <vehicle id="right_358" type="car" route="right" depart="843" departSpeed="5"/>
    <vehicle id="right_359" type="car" route="right" depart="844" departSpeed="5"/>
    <vehicle id="left_360" type="car" route="left" depart="847" departSpeed="5"/>
    <vehicle id="down_361" type="car" route="down" depart="849" departSpeed="5"/>
    <vehicle id="up_362" type="car" route="up" depart="851" departSpeed="5"/>
    <vehicle id="left_363" type="car" route="left" depart="855" departSpeed="5"/>
    <vehicle id="right_364" type="car" route="right" depart="859" departSpeed="5"/>