<routes>
                               <vType id="car" accel="1.0" decel="4.5" sigma="0.7" length="5" minGap="3" maxSpeed="15" guiShape="passenger"/>

                               <route id="WETop" edges="5i 1i 2o" />
                               <route id="EWTop" edges="2i 1o 5o" />
                               <route id="NS" edges="4i 3o 8i" />
                               <route id="SN" edges="8o 3i 4o" />
                               <route id="WEBottom" edges="9o 7o 11o" />
                               <route id="EWBottom" edges="11i 7i 9i" />

                               <route id="t1" edges="6o 1i 3o 11o" />
                               <route id="t2" edges="8o 7i 10i" />
                               <route id="t3" edges="4i 1o 6i" />
                               <route id="t4" edges="10o 7o 11o" />

                               <route id="t5" edges="9o 7o 8i" />
                               <route id="t6" edges="9o 10i" />
                               <route id="t7" edges="6o 5o" />
                               <route id="t8" edges="4i 3o 11o" />
                               <route id="t9" edges="9o 7o 3i 1o 6i" />
                               
    <vehicle id="NS_0" type="car" route="NS" depart="0" departSpeed="5"/>
    <vehicle id="WETop_1" type="car" route="WETop" depart="2" departSpeed="5"/>
    <vehicle id="EWBottom_2" type="car" route="EWBottom" depart="2" departSpeed="5"/>
    <vehicle id="t3_3" type="car" route="t3" depart="2" departSpeed="5"/>
    <vehicle id="t8_4" type="car" route="t8" depart="4" departSpeed="5"/>
    <vehicle id="t9_5" type="car" route="t9" depart="4" departSpeed="5"/>
    <vehicle id="WEBottom_6" type="car" route="WEBottom" depart="5" departSpeed="5"/>
    <vehicle id="t8_7" type="car" route="t8" depart="5" departSpeed="5"/>
    <vehicle id="t6_8" type="car" route="t6" depart="6" departSpeed="5"/>
    <vehicle id="WEBottom_9" type="car" route="WEBottom" depart="7" departSpeed="5"/>
    <vehicle id="t2_10" type="car" route="t2" depart="7" departSpeed="5"/>
    <vehicle id="t8_11" type="car" route="t8" depart="7" departSpeed="5"/>
    <vehicle id="WEBottom_12" type="car" route="WEBottom" depart="8" departSpeed="5"/>
    <vehicle id="EWBottom_13" type="car" route="EWBottom" depart="9" departSpeed="5"/>
    <vehicle id="EWTop_14" type="car" route="EWTop" depart="10" departSpeed="5"/>
    <vehicle id="EWBottom_15" type="car" route="EWBottom" depart="10" departSpeed="5"/>
    <vehicle id="t7_16" type="car" route="t7" depart="11" departSpeed="5"/>
    <vehicle id="EWTop_17" type="car" route="EWTop" depart="12" departSpeed="5"/>
    <vehicle id="WETop_18" type="car" route="WETop" depart="13" departSpeed="5"/>
    <vehicle id="NS_19" type="car" route="NS" depart="15" departSpeed="5"/>
    <vehicle id="EWBottom_20" type="car" route="EWBottom" depart="17" departSpeed="5"/>
    <vehicle id="t3_21" type="car" route="t3" depart="17" departSpeed="5"/>
    <vehicle id="t6_22" type="car" route="t6" depart="17" departSpeed="5"/>
    <vehicle id="t6_23" type="car" route="t6" depart="17" departSpeed="5"/>
    <vehicle id="EWBottom_24" type="car" route="EWBottom" depart="18" departSpeed="5"/>
    <vehicle id="t8_25" type="car" route="t8" depart="18" departSpeed="5"/>
    <vehicle id="t1_26" type="car" route="t1" depart="19" departSpeed="5"/>
    <vehicle id="WEBottom_27" type="car" route="WEBottom" depart="20" departSpeed="5"/>
    <vehicle id="t4_28" type="car" route="t4" depart="20" departSpeed="5"/>
    <vehicle id="t5_29" type="car" route="t5" depart="20" departSpeed="5"/>
    <vehicle id="EWBottom_30" type="car" route="EWBottom" depart="21" departSpeed="5"/>
    <vehicle id="t3_31" type="car" route="t3" depart="21" departSpeed="5"/>
    <vehicle id="EWBottom_32" type="car" route="EWBottom" depart="22" departSpeed="5"/>
    <vehicle id="t6_33" type="car" route="t6" depart="22" departSpeed="5"/>
    <vehicle id="NS_34" type="car" route="NS" depart="23" departSpeed="5"/>
    <vehicle id="t9_35" type="car" route="t9" depart="25" departSpeed="5"/>
    <vehicle id="t2_36" type="car" route="t2" depart="26" departSpeed="5"/>
    <vehicle id="EWTop_37" type="car" route="EWTop" depart="27" departSpeed="5"/>
    <vehicle id="t6_38" type="car" route="t6" depart="28" departSpeed="5"/>
    <vehicle id="WEBottom_39" type="car" route="WEBottom" depart="29" departSpeed="5"/>
    <vehicle id="t4_40" type="car" route="t4" depart="29" departSpeed="5"/>
    <vehicle id="t5_41" type="car" route="t5" depart="29" departSpeed="5"/>
    <vehicle id="t6_42" type="car" route="t6" depart="29" departSpeed="5"/>
    <vehicle id="WETop_43" type="car" route="WETop" depart="30" departSpeed="5"/>
    <vehicle id="t6_44" type="car" route="t6" depart="30" departSpeed="5"/>
    <vehicle id="WETop_45" type="car" route="WETop" depart="31" departSpeed="5"/>
    <vehicle id="WEBottom_46" type="car" route="WEBottom" depart="34" departSpeed="5"/>
    <vehicle id="t2_47" type="car" route="t2" depart="35" departSpeed="5"/>
    <vehicle id="t7_48" type="car" route="t7" depart="35" departSpeed="5"/>
    <vehicle id="SN_49" type="car" route="SN" depart="36" departSpeed="5"/>
    <vehicle id="t6_50" type="car" route="t6" depart="36" departSpeed="5"/>
    <vehicle id="t6_51" type="car" route="t6" depart="37" departSpeed="5"/>
    <vehicle id="t9_52" type="car" route="t9" depart="37" departSpeed="5"/>
    <vehicle id="t6_53" type="car" route="t6" depart="38" departSpeed="5"/>
    <vehicle id="SN_54" type="car" route="SN" depart="39" departSpeed="5"/>
    <vehicle id="t8_55" type="car" route="t8" depart="39" departSpeed="5"/>
    <vehicle id="t6_56" type="car" route="t6" depart="40" departSpeed="5"/>
    <vehicle id="t8_57" type="car" route="t8" depart="41" departSpeed="5"/>
    <vehicle id="WETop_58" type="car" route="WETop" depart="42" departSpeed="5"/>
    <vehicle id="SN_59" type="car" route="SN" depart="43" departSpeed="5"/>
    <vehicle id="t7_60" type="car" route="t7" depart="43" departSpeed="5"/>
    <vehicle id="EWTop_61" type="car" route="EWTop" depart="44" departSpeed="5"/>
    <vehicle id="t2_62" type="car" route="t2" depart="44" departSpeed="5"/>
    <vehicle id="t6_63" type="car" route="t6" depart="45" departSpeed="5"/>
    <vehicle id="NS_64" type="car" route="NS" depart="46" departSpeed="5"/>
    <vehicle id="t4_65" type="car" route="t4" depart="47" departSpeed="5"/>
    <vehicle id="t5_66" type="car" route="t5" depart="47" departSpeed="5"/>
    <vehicle id="WETop_67" type="car" route="WETop" depart="48" departSpeed="5"/>
    <vehicle id="t2_68" type="car" route="t2" depart="49" departSpeed="5"/>
    <vehicle id="EWTop_69" type="car" route="EWTop" depart="50" departSpeed="5"/>
    <vehicle id="t6_70" type="car" route="t6" depart="50" departSpeed="5"/>
    <vehicle id="NS_71" type="car" route="NS" depart="52" departSpeed="5"/>
    <vehicle id="t8_72" type="car" route="t8" depart="54" departSpeed="5"/>
    <vehicle id="WETop_73" type="car" route="WETop" depart="55" departSpeed="5"/>
    <vehicle id="WEBottom_74" type="car" route="WEBottom" depart="55" departSpeed="5"/>
    <vehicle id="t7_75" type="car" route="t7" depart="55" departSpeed="5"/>
    <vehicle id="NS_76" type="car" route="NS" depart="56" departSpeed="5"/>
    <vehicle id="t8_77" type="car" route="t8" depart="56" departSpeed="5"/>
    <vehicle id="SN_78" type="car" route="SN" depart="57" departSpeed="5"/>
    <vehicle id="SN_79" type="car" route="SN" depart="58" departSpeed="5"/>
    <vehicle id="t2_80" type="car" route="t2" depart="58" departSpeed="5"/>
    <vehicle id="EWTop_81" type="car" route="EWTop" depart="59" departSpeed="5"/>
    <vehicle id="t9_82" type="car" route="t9" depart="59" departSpeed="5"/>
    <vehicle id="t2_83" type="car" route="t2" depart="60" departSpeed="5"/>
    <vehicle id="t6_84" type="car" route="t6" depart="60" departSpeed="5"/>
    <vehicle id="SN_85" type="car" route="SN" depart="62" departSpeed="5"/>
    <vehicle id="t6_86" type="car" route="t6" depart="62" departSpeed="5"/>
    <vehicle id="WETop_87" type="car" route="WETop" depart="63" departSpeed="5"/>
    <vehicle id="EWTop_88" type="car" route="EWTop" depart="63" departSpeed="5"/>
    <vehicle id="EWBottom_89" type="car" route="EWBottom" depart="63" departSpeed="5"/>
    <vehicle id="t7_90" type="car" route="t7" depart="63" departSpeed="5"/>
    <vehicle id="EWTop_91" type="car" route="EWTop" depart="64" departSpeed="5"/>
    <vehicle id="WEBottom_92" type="car" route="WEBottom" depart="64" departSpeed="5"/>
    <vehicle id="t6_93" type="car" route="t6" depart="64" departSpeed="5"/>
    <vehicle id="t6_94" type="car" route="t6" depart="65" departSpeed="5"/>
    <vehicle id="EWBottom_95" type="car" route="EWBottom" depart="67" departSpeed="5"/>
    <vehicle id="t7_96" type="car" route="t7" depart="67" departSpeed="5"/>
    <vehicle id="WETop_97" type="car" route="WETop" depart="68" departSpeed="5"/>
    <vehicle id="NS_98" type="car" route="NS" depart="68" departSpeed="5"/>
    <vehicle id="SN_99" type="car" route="SN" depart="68" departSpeed="5"/>
    <vehicle id="t3_100" type="car" route="t3" depart="69" departSpeed="5"/>
    <vehicle id="t4_101" type="car" route="t4" depart="71" departSpeed="5"/>
    <vehicle id="t5_102" type="car" route="t5" depart="71" departSpeed="5"/>
    <vehicle id="t1_103" type="car" route="t1" depart="72" departSpeed="5"/>
    <vehicle id="t6_104" type="car" route="t6" depart="72" departSpeed="5"/>
    <vehicle id="t7_105" type="car" route="t7" depart="72" departSpeed="5"/>
    <vehicle id="t1_106" type="car" route="t1" depart="73" departSpeed="5"/>
    <vehicle id="t3_107" type="car" route="t3" depart="73" departSpeed="5"/>
    <vehicle id="EWTop_108" type="car" route="EWTop" depart="74" departSpeed="5"/>
    <vehicle id="t6_109" type="car" route="t6" depart="75" departSpeed="5"/>
    <vehicle id="t4_110" type="car" route="t4" depart="76" departSpeed="5"/>
    <vehicle id="t5_111" type="car" route="t5" depart="76" departSpeed="5"/>
    <vehicle id="EWTop_112" type="car" route="EWTop" depart="77" departSpeed="5"/>
    <vehicle id="t4_113" type="car" route="t4" depart="79" departSpeed="5"/>
    <vehicle id="t5_114" type="car" route="t5" depart="79" departSpeed="5"/>
    <vehicle id="t6_115" type="car" route="t6" depart="81" departSpeed="5"/>
    <vehicle id="t9_116" type="car" route="t9" depart="81" departSpeed="5"/>
    <vehicle id="t3_117" type="car" route="t3" depart="82" departSpeed="5"/>
    <vehicle id="t4_118" type="car" route="t4" depart="82" departSpeed="5"/>
    <vehicle id="t5_119" type="car" route="t5" depart="82" departSpeed="5"/>
    <vehicle id="t6_120" type="car" route="t6" depart="84" departSpeed="5"/>
    <vehicle id="EWBottom_121" type="car" route="EWBottom" depart="87" departSpeed="5"/>
    <vehicle id="NS_122" type="car" route="NS" depart="87" departSpeed="5"/>
    <vehicle id="t3_123" type="car" route="t3" depart="89" departSpeed="5"/>
    <vehicle id="EWTop_124" type="car" route="EWTop" depart="91" departSpeed="5"/>
    <vehicle id="EWTop_125" type="car" route="EWTop" depart="93" departSpeed="5"/>
    <vehicle id="NS_126" type="car" route="NS" depart="94" departSpeed="5"/>
    <vehicle id="t6_127" type="car" route="t6" depart="94" departSpeed="5"/>
    <vehicle id="WEBottom_128" type="car" route="WEBottom" depart="95" departSpeed="5"/>
    <vehicle id="SN_129" type="car" route="SN" depart="95" departSpeed="5"/>
    <vehicle id="t7_130" type="car" route="t7" depart="95" departSpeed="5"/>
    <vehicle id="t2_131" type="car" route="t2" depart="96" departSpeed="5"/>
    <vehicle id="WETop_132" type="car" route="WETop" depart="97" departSpeed="5"/>
    <vehicle id="WETop_133" type="car" route="WETop" depart="99" departSpeed="5"/>
    <vehicle id="t6_134" type="car" route="t6" depart="99" departSpeed="5"/>
    <vehicle id="t9_135" type="car" route="t9" depart="99" departSpeed="5"/>
    <vehicle id="t7_136" type="car" route="t7" depart="100" departSpeed="5"/>
    <vehicle id="WETop_137" type="car" route="WETop" depart="103" departSpeed="5"/>
    <vehicle id="t1_138" type="car" route="t1" depart="103" departSpeed="5"/>
    <vehicle id="t3_139" type="car" route="t3" depart="103" departSpeed="5"/>
    <vehicle id="t6_140" type="car" route="t6" depart="103" departSpeed="5"/>
    <vehicle id="SN_141" type="car" route="SN" depart="104" departSpeed="5"/>
    <vehicle id="t1_142" type="car" route="t1" depart="104" departSpeed="5"/>
    <vehicle id="WEBottom_143" type="car" route="WEBottom" depart="105" departSpeed="5"/>
    <vehicle id="t6_144" type="car" route="t6" depart="105" departSpeed="5"/>
    <vehicle id="t8_145" type="car" route="t8" depart="105" departSpeed="5"/>
    <vehicle id="t6_146" type="car" route="t6" depart="106" departSpeed="5"/>
    <vehicle id="EWTop_147" type="car" route="EWTop" depart="108" departSpeed="5"/>
    <vehicle id="t3_148" type="car" route="t3" depart="108" departSpeed="5"/>
    <vehicle id="SN_149" type="car" route="SN" depart="110" departSpeed="5"/>
    <vehicle id="WEBottom_150" type="car" route="WEBottom" depart="111" departSpeed="5"/>
    <vehicle id="SN_151" type="car" route="SN" depart="114" departSpeed="5"/>
    <vehicle id="t6_152" type="car" route="t6" depart="114" departSpeed="5"/>
    <vehicle id="t8_153" type="car" route="t8" depart="115" departSpeed="5"/>
    <vehicle id="EWTop_154" type="car" route="EWTop" depart="117" departSpeed="5"/>
    <vehicle id="EWBottom_155" type="car" route="EWBottom" depart="117" departSpeed="5"/>
    <vehicle id="t4_156" type="car" route="t4" depart="117" departSpeed="5"/>
    <vehicle id="t5_157" type="car" route="t5" depart="117" departSpeed="5"/>
    <vehicle id="t8_158" type="car" route="t8" depart="117" departSpeed="5"/>
    <vehicle id="EWTop_159" type="car" route="EWTop" depart="119" departSpeed="5"/>
    <vehicle id="t1_160" type="car" route="t1" depart="119" departSpeed="5"/>
    <vehicle id="NS_161" type="car" route="NS" depart="120" departSpeed="5"/>
    <vehicle id="t4_162" type="car" route="t4" depart="120" departSpeed="5"/>
    <vehicle id="t5_163" type="car" route="t5" depart="120" departSpeed="5"/>
    <vehicle id="t1_164" type="car" route="t1" depart="121" departSpeed="5"/>
    <vehicle id="t3_165" type="car" route="t3" depart="121" departSpeed="5"/>
    <vehicle id="t7_166" type="car" route="t7" depart="121" departSpeed="5"/>
    <vehicle id="t7_167" type="car" route="t7" depart="122" departSpeed="5"/>
    <vehicle id="t9_168" type="car" route="t9" depart="123" departSpeed="5"/>
    <vehicle id="t3_169" type="car" route="t3" depart="125" departSpeed="5"/>
    <vehicle id="EWTop_170" type="car" route="EWTop" depart="126" departSpeed="5"/>
    <vehicle id="t6_171" type="car" route="t6" depart="126" departSpeed="5"/>
    <vehicle id="t7_172" type="car" route="t7" depart="126" departSpeed="5"/>
    <vehicle id="t8_173" type="car" route="t8" depart="126" departSpeed="5"/>
    <vehicle id="t6_174" type="car" route="t6" depart="127" departSpeed="5"/>
    <vehicle id="t7_175" type="car" route="t7" depart="127" departSpeed="5"/>
    <vehicle id="t1_176" type="car" route="t1" depart="128" departSpeed="5"/>
    <vehicle id="t4_177" type="car" route="t4" depart="130" departSpeed="5"/>
    <vehicle id="t5_178" type="car" route="t5" depart="130" departSpeed="5"/>
    <vehicle id="t7_179" type="car" route="t7" depart="130" departSpeed="5"/>
    <vehicle id="t3_180" type="car" route="t3" depart="131" departSpeed="5"/>
    <vehicle id="t8_181" type="car" route="t8" depart="131" departSpeed="5"/>
    <vehicle id="t6_182" type="car" route="t6" depart="132" departSpeed="5"/>
    <vehicle id="t7_183" type="car" route="t7" depart="133" departSpeed="5"/>
    <vehicle id="EWTop_184" type="car" route="EWTop" depart="134" departSpeed="5"/>
    <vehicle id="WEBottom_185" type="car" route="WEBottom" depart="134" departSpeed="5"/>
    <vehicle id="NS_186" type="car" route="NS" depart="134" departSpeed="5"/>
    <vehicle id="SN_187" type="car" route="SN" depart="134" departSpeed="5"/>
    <vehicle id="t1_188" type="car" route="t1" depart="136" departSpeed="5"/>
    <vehicle id="SN_189" type="car" route="SN" depart="137" departSpeed="5"/>
    <vehicle id="t2_190" type="car" route="t2" depart="137" departSpeed="5"/>
    <vehicle id="t6_191" type="car" route="t6" depart="137" departSpeed="5"/>
    <vehicle id="t9_192" type="car" route="t9" depart="137" departSpeed="5"/>
    <vehicle id="WETop_193" type="car" route="WETop" depart="138" departSpeed="5"/>
    <vehicle id="NS_194" type="car" route="NS" depart="138" departSpeed="5"/>
    <vehicle id="SN_195" type="car" route="SN" depart="138" departSpeed="5"/>
    <vehicle id="t4_196" type="car" route="t4" depart="138" departSpeed="5"/>
    <vehicle id="t5_197" type="car" route="t5" depart="138" departSpeed="5"/>
    <vehicle id="NS_198" type="car" route="NS" depart="139" departSpeed="5"/>
    <vehicle id="t9_199" type="car" route="t9" depart="139" departSpeed="5"/>
    <vehicle id="t2_200" type="car" route="t2" depart="140" departSpeed="5"/>
    <vehicle id="t7_201" type="car" route="t7" depart="140" departSpeed="5"/>
    <vehicle id="t8_202" type="car" route="t8" depart="141" departSpeed="5"/>
    <vehicle id="t6_203" type="car" route="t6" depart="142" departSpeed="5"/>
    <vehicle id="t4_204" type="car" route="t4" depart="143" departSpeed="5"/>
    <vehicle id="t5_205" type="car" route="t5" depart="143" departSpeed="5"/>
    <vehicle id="t6_206" type="car" route="t6" depart="144" departSpeed="5"/>
    <vehicle id="t7_207" type="car" route="t7" depart="144" departSpeed="5"/>
    <vehicle id="WEBottom_208" type="car" route="WEBottom" depart="146" departSpeed="5"/>
    <vehicle id="t3_209" type="car" route="t3" depart="146" departSpeed="5"/>
    <vehicle id="t6_210" type="car" route="t6" depart="146" departSpeed="5"/>
    <vehicle id="t1_211" type="car" route="t1" depart="147" departSpeed="5"/>
    <vehicle id="t7_212" type="car" route="t7" depart="147" departSpeed="5"/>
    <vehicle id="t8_213" type="car" route="t8" depart="147" departSpeed="5"/>
    <vehicle id="WEBottom_214" type="car" route="WEBottom" depart="148" departSpeed="5"/>
    <vehicle id="EWTop_215" type="car" route="EWTop" depart="149" departSpeed="5"/>
    <vehicle id="t2_216" type="car" route="t2" depart="151" departSpeed="5"/>
    <vehicle id="t3_217" type="car" route="t3" depart="151" departSpeed="5"/>
    <vehicle id="t8_218" type="car" route="t8" depart="151" departSpeed="5"/>
    <vehicle id="t7_219" type="car" route="t7" depart="155" departSpeed="5"/>
    <vehicle id="t2_220" type="car" route="t2" depart="156" departSpeed="5"/>
    <vehicle id="t3_221" type="car" route="t3" depart="157" departSpeed="5"/>
    <vehicle id="NS_222" type="car" route="NS" depart="158" departSpeed="5"/>
    <vehicle id="t8_223" type="car" route="t8" depart="159" departSpeed="5"/>
    <vehicle id="WEBottom_224" type="car" route="WEBottom" depart="160" departSpeed="5"/>
    <vehicle id="SN_225" type="car" route="SN" depart="161" departSpeed="5"/>
    <vehicle id="WEBottom_226" type="car" route="WEBottom" depart="162" departSpeed="5"/>
    <vehicle id="NS_227" type="car" route="NS" depart="162" departSpeed="5"/>
    <vehicle id="SN_228" type="car" route="SN" depart="162" departSpeed="5"/>
    <vehicle id="t8_229" type="car" route="t8" depart="162" departSpeed="5"/>
    <vehicle id="WETop_230" type="car" route="WETop" depart="163" departSpeed="5"/>
    <vehicle id="t2_231" type="car" route="t2" depart="163" departSpeed="5"/>
    <vehicle id="t7_232" type="car" route="t7" depart="163" departSpeed="5"/>
    <vehicle id="t3_233" type="car" route="t3" depart="165" departSpeed="5"/>
    <vehicle id="WETop_234" type="car" route="WETop" depart="166" departSpeed="5"/>
    <vehicle id="EWBottom_235" type="car" route="EWBottom" depart="167" departSpeed="5"/>
    <vehicle id="t3_236" type="car" route="t3" depart="168" departSpeed="5"/>
    <vehicle id="t7_237" type="car" route="t7" depart="168" departSpeed="5"/>
    <vehicle id="WEBottom_238" type="car" route="WEBottom" depart="169" departSpeed="5"/>
    <vehicle id="t9_239" type="car" route="t9" depart="169" departSpeed="5"/>
    <vehicle id="t4_240" type="car" route="t4" depart="170" departSpeed="5"/>
    <vehicle id="t5_241" type="car" route="t5" depart="170" departSpeed="5"/>
    <vehicle id="t2_242" type="car" route="t2" depart="171" departSpeed="5"/>
    <vehicle id="t6_243" type="car" route="t6" depart="171" departSpeed="5"/>
    <vehicle id="t6_244" type="car" route="t6" depart="172" departSpeed="5"/>
    <vehicle id="t6_245" type="car" route="t6" depart="173" departSpeed="5"/>
    <vehicle id="NS_246" type="car" route="NS" depart="175" departSpeed="5"/>
    <vehicle id="EWTop_247" type="car" route="EWTop" depart="176" departSpeed="5"/>
    <vehicle id="t6_248" type="car" route="t6" depart="176" departSpeed="5"/>
    <vehicle id="WETop_249" type="car" route="WETop" depart="177" departSpeed="5"/>
    <vehicle id="t2_250" type="car" route="t2" depart="177" departSpeed="5"/>
    <vehicle id="WEBottom_251" type="car" route="WEBottom" depart="180" departSpeed="5"/>
    <vehicle id="WETop_252" type="car" route="WETop" depart="181" departSpeed="5"/>
    <vehicle id="t7_253" type="car" route="t7" depart="181" departSpeed="5"/>
    <vehicle id="t6_254" type="car" route="t6" depart="182" departSpeed="5"/>
    <vehicle id="WETop_255" type="car" route="WETop" depart="183" departSpeed="5"/>
    <vehicle id="t6_256" type="car" route="t6" depart="183" departSpeed="5"/>
    <vehicle id="EWBottom_257" type="car" route="EWBottom" depart="185" departSpeed="5"/>
    <vehicle id="t3_258" type="car" route="t3" depart="185" departSpeed="5"/>
    <vehicle id="EWTop_259" type="car" route="EWTop" depart="187" departSpeed="5"/>
    <vehicle id="SN_260" type="car" route="SN" depart="187" departSpeed="5"/>
    <vehicle id="t2_261" type="car" route="t2" depart="187" departSpeed="5"/>
    <vehicle id="EWBottom_262" type="car" route="EWBottom" depart="188" departSpeed="5"/>
    <vehicle id="WEBottom_263" type="car" route="WEBottom" depart="189" departSpeed="5"/>
    <vehicle id="t6_264" type="car" route="t6" depart="189" departSpeed="5"/>
    <vehicle id="t2_265" type="car" route="t2" depart="190" departSpeed="5"/>
    <vehicle id="t6_266" type="car" route="t6" depart="190" departSpeed="5"/>
    <vehicle id="t7_267" type="car" route="t7" depart="190" departSpeed="5"/>
    <vehicle id="WETop_268" type="car" route="WETop" depart="191" departSpeed="5"/>
    <vehicle id="EWTop_269" type="car" route="EWTop" depart="191" departSpeed="5"/>
    <vehicle id="NS_270" type="car" route="NS" depart="191" departSpeed="5"/>
    <vehicle id="t1_271" type="car" route="t1" depart="191" departSpeed="5"/>
    <vehicle id="t6_272" type="car" route="t6" depart="191" departSpeed="5"/>
    <vehicle id="NS_273" type="car" route="NS" depart="192" departSpeed="5"/>
    <vehicle id="t8_274" type="car" route="t8" depart="192" departSpeed="5"/>
    <vehicle id="NS_275" type="car" route="NS" depart="194" departSpeed="5"/>
    <vehicle id="SN_276" type="car" route="SN" depart="194" departSpeed="5"/>
    <vehicle id="NS_277" type="car" route="NS" depart="195" departSpeed="5"/>
    <vehicle id="WEBottom_278" type="car" route="WEBottom" depart="196" departSpeed="5"/>
    <vehicle id="t1_279" type="car" route="t1" depart="196" departSpeed="5"/>
    <vehicle id="t9_280" type="car" route="t9" depart="199" departSpeed="5"/>
    <vehicle id="t1_281" type="car" route="t1" depart="201" departSpeed="5"/>
    <vehicle id="t4_282" type="car" route="t4" depart="201" departSpeed="5"/>
    <vehicle id="t5_283" type="car" route="t5" depart="201" departSpeed="5"/>
    <vehicle id="t8_284" type="car" route="t8" depart="202" departSpeed="5"/>
    <vehicle id="t3_285" type="car" route="t3" depart="203" departSpeed="5"/>
    <vehicle id="SN_286" type="car" route="SN" depart="205" departSpeed="5"/>
    <vehicle id="t3_287" type="car" route="t3" depart="205" departSpeed="5"/>
    <vehicle id="t8_288" type="car" route="t8" depart="205" departSpeed="5"/>
    <vehicle id="WEBottom_289" type="car" route="WEBottom" depart="208" departSpeed="5"/>
    <vehicle id="NS_290" type="car" route="NS" depart="210" departSpeed="5"/>
    <vehicle id="t4_291" type="car" route="t4" depart="210" departSpeed="5"/>
    <vehicle id="t5_292" type="car" route="t5" depart="210" departSpeed="5"/>
    <vehicle id="NS_293" type="car" route="NS" depart="211" departSpeed="5"/>
    <vehicle id="t1_294" type="car" route="t1" depart="211" departSpeed="5"/>
    <vehicle id="t4_295" type="car" route="t4" depart="211" departSpeed="5"/>
    <vehicle id="t5_296" type="car" route="t5" depart="211" departSpeed="5"/>
    <vehicle id="t6_297" type="car" route="t6" depart="211" departSpeed="5"/>
    <vehicle id="t7_298" type="car" route="t7" depart="212" departSpeed="5"/>
    <vehicle id="EWTop_299" type="car" route="EWTop" depart="213" departSpeed="5"/>
    <vehicle id="EWBottom_300" type="car" route="EWBottom" depart="215" departSpeed="5"/>
    <vehicle id="t1_301" type="car" route="t1" depart="215" departSpeed="5"/>
    <vehicle id="t3_302" type="car" route="t3" depart="215" departSpeed="5"/>
    <vehicle id="t2_303" type="car" route="t2" depart="216" departSpeed="5"/>
    <vehicle id="t6_304" type="car" route="t6" depart="216" departSpeed="5"/>
    <vehicle id="WETop_305" type="car" route="WETop" depart="217" departSpeed="5"/>
    <vehicle id="t3_306" type="car" route="t3" depart="218" departSpeed="5"/>
    <vehicle id="EWBottom_307" type="car" route="EWBottom" depart="219" departSpeed="5"/>
    <vehicle id="NS_308" type="car" route="NS" depart="219" departSpeed="5"/>
    <vehicle id="WETop_309" type="car" route="WETop" depart="220" departSpeed="5"/>
    <vehicle id="NS_310" type="car" route="NS" depart="220" departSpeed="5"/>
    <vehicle id="t1_311" type="car" route="t1" depart="220" departSpeed="5"/>
    <vehicle id="WEBottom_312" type="car" route="WEBottom" depart="221" departSpeed="5"/>
    <vehicle id="t6_313" type="car" route="t6" depart="222" departSpeed="5"/>
    <vehicle id="t7_314" type="car" route="t7" depart="222" departSpeed="5"/>
    <vehicle id="t9_315" type="car" route="t9" depart="222" departSpeed="5"/>
    <vehicle id="SN_316" type="car" route="SN" depart="224" departSpeed="5"/>
    <vehicle id="t3_317" type="car" route="t3" depart="224" departSpeed="5"/>
    <vehicle id="NS_318" type="car" route="NS" depart="225" departSpeed="5"/>
    <vehicle id="t7_319" type="car" route="t7" depart="226" departSpeed="5"/>
    <vehicle id="WETop_320" type="car" route="WETop" depart="227" departSpeed="5"/>
    <vehicle id="t7_321" type="car" route="t7" depart="227" departSpeed="5"/>
    <vehicle id="WETop_322" type="car" route="WETop" depart="229" departSpeed="5"/>
    <vehicle id="WEBottom_323" type="car" route="WEBottom" depart="230" departSpeed="5"/>
    <vehicle id="SN_324" type="car" route="SN" depart="232" departSpeed="5"/>
    <vehicle id="t6_325" type="car" route="t6" depart="233" departSpeed="5"/>
    <vehicle id="t2_326" type="car" route="t2" depart="234" departSpeed="5"/>
    <vehicle id="t3_327" type="car" route="t3" depart="234" departSpeed="5"/>
    <vehicle id="WEBottom_328" type="car" route="WEBottom" depart="235" departSpeed="5"/>
    <vehicle id="t4_329" type="car" route="t4" depart="235" departSpeed="5"/>
    <vehicle id="t5_330" type="car" route="t5" depart="235" departSpeed="5"/>
    <vehicle id="t7_331" type="car" route="t7" depart="235" departSpeed="5"/>
    <vehicle id="t2_332" type="car" route="t2" depart="237" departSpeed="5"/>
    <vehicle id="SN_333" type="car" route="SN" depart="238" departSpeed="5"/>
    <vehicle id="t6_334" type="car" route="t6" depart="238" departSpeed="5"/>
    <vehicle id="EWBottom_335" type="car" route="EWBottom" depart="240" departSpeed="5"/>
    <vehicle id="t2_336" type="car" route="t2" depart="240" departSpeed="5"/>
    <vehicle id="t3_337" type="car" route="t3" depart="240" departSpeed="5"/>
    <vehicle id="t2_338" type="car" route="t2" depart="241" departSpeed="5"/>
    <vehicle id="t7_339" type="car" route="t7" depart="241" departSpeed="5"/>
    <vehicle id="WETop_340" type="car" route="WETop" depart="242" departSpeed="5"/>
    <vehicle id="EWBottom_341" type="car" route="EWBottom" depart="242" departSpeed="5"/>
    <vehicle id="t4_342" type="car" route="t4" depart="244" departSpeed="5"/>
    <vehicle id="t5_343" type="car" route="t5" depart="244" departSpeed="5"/>
    <vehicle id="NS_344" type="car" route="NS" depart="246" departSpeed="5"/>
    <vehicle id="SN_345" type="car" route="SN" depart="246" departSpeed="5"/>
    <vehicle id="NS_346" type="car" route="NS" depart="247" departSpeed="5"/>
    <vehicle id="t2_347" type="car" route="t2" depart="247" departSpeed="5"/>
    <vehicle id="t8_348" type="car" route="t8" depart="247" departSpeed="5"/>
    <vehicle id="t7_349" type="car" route="t7" depart="249" departSpeed="5"/>
    <vehicle id="WEBottom_350" type="car" route="WEBottom" depart="250" departSpeed="5"/>
    <vehicle id="t6_351" type="car" route="t6" depart="250" departSpeed="5"/>
    <vehicle id="t4_352" type="car" route="t4" depart="251" departSpeed="5"/>
    <vehicle id="t5_353" type="car" route="t5" depart="251" departSpeed="5"/>
    <vehicle id="t3_354" type="car" route="t3" depart="253" departSpeed="5"/>
    <vehicle id="t4_355" type="car" route="t4" depart="253" departSpeed="5"/>
    <vehicle id="t5_356" type="car" route="t5" depart="253" departSpeed="5"/>
    <vehicle id="t6_357" type="car" route="t6" depart="253" departSpeed="5"/>
    <vehicle id="NS_358" type="car" route="NS" depart="254" departSpeed="5"/>
    <vehicle id="EWBottom_359" type="car" route="EWBottom" depart="255" departSpeed="5"/>
    <vehicle id="t8_360" type="car" route="t8" depart="255" departSpeed="5"/>
    <vehicle id="t4_361" type="car" route="t4" depart="257" departSpeed="5"/>