<routes>
            <vType id="car" accel="1.0" decel="4.5" sigma="0.7" length="5" minGap="3" maxSpeed="15" guiShape="passenger"/>

            <route id="right" edges="1i 2o" />
            <route id="left" edges="2i 1o" />
            <route id="down" edges="4i 3o" />
            <route id="up" edges="3i 4o" />
    <vehicle id="down_0" type="car" route="down" depart="0" departSpeed="5"/>
    <vehicle id="left_1" type="car" route="left" depart="1" departSpeed="5"/>
    <vehicle id="right_2" type="car" route="right" depart="3" departSpeed="5"/>
    <vehicle id="right_3" type="car" route="right" depart="4" departSpeed="5"/>
    <vehicle id="left_4" type="car" route="left" depart="9" departSpeed="5"/>
    <vehicle id="right_5" type="car" route="right" depart="10" departSpeed="5"/>
    <vehicle id="left_6" type="car" route="left" depart="10" departSpeed="5"/>
    <vehicle id="down_7" type="car" route="down" depart="10" departSpeed="5"/>
    <vehicle id="right_8" type="car" route="right" depart="15" departSpeed="5"/>
    <vehicle id="right_9" type="car" route="right" depart="20" departSpeed="5"/>
    <vehicle id="right_10" type="car" route="right" depart="27" departSpeed="5"/>
    <vehicle id="left_11" type="car" route="left" depart="27" departSpeed="5"/>
    <vehicle id="down_12" type="car" route="down" depart="27" departSpeed="5"/>
    <vehicle id="up_13" type="car" route="up" depart="27" departSpeed="5"/>
    <vehicle id="down_14" type="car" route="down" depart="30" departSpeed="5"/>
    <vehicle id="up_15" type="car" route="up" depart="31" departSpeed="5"/>
    <vehicle id="up_16" type="car" route="up" depart="32" departSpeed="5"/>
    <vehicle id="left_17" type="car" route="left" depart="36" departSpeed="5"/>
    <vehicle id="left_18" type="car" route="left" depart="38" departSpeed="5"/>
    <vehicle id="up_19" type="car" route="up" depart="39" departSpeed="5"/>
    <vehicle id="up_20" type="car" route="up" depart="41" departSpeed="5"/>
    <vehicle id="down_21" type="car" route="down" depart="43" departSpeed="5"/>
    <vehicle id="left_22" type="car" route="left" depart="46" departSpeed="5"/>
    <vehicle id="right_23" type="car" route="right" depart="47" departSpeed="5"/>
    <vehicle id="up_24" type="car" route="up" depart="49" departSpeed="5"/>
    <vehicle id="left_25" type="car" route="left" depart="52" departSpeed="5"/>
    <vehicle id="right_26" type="car" route="right" depart="58" departSpeed="5"/>
    <vehicle id="left_27" type="car" route="left" depart="61" departSpeed="5"/>
    <vehicle id="up_28" type="car" route="up" depart="63" departSpeed="5"/>
    <vehicle id="left_29" type="car" route="left" depart="64" departSpeed="5"/>
    <vehicle id="left_30" type="car" route="left" depart="65" departSpeed="5"/>
    <vehicle id="right_31" type="car" route="right" depart="70" departSpeed="5"/>
    <vehicle id="down_32" type="car" route="down" depart="74" departSpeed="5"/>
    <vehicle id="up_33" type="car" route="up" depart="80" departSpeed="5"/>
    <vehicle id="left_34" type="car" route="left" depart="81" departSpeed="5"/>
    <vehicle id="left_35" type="car" route="left" depart="84" departSpeed="5"/>
    <vehicle id="up_36" type="car" route="up" depart="84" departSpeed="5"/>
    <vehicle id="left_37" type="car" route="left" depart="93" departSpeed="5"/>
    <vehicle id="right_38" type="car" route="right" depart="94" departSpeed="5"/>
    <vehicle id="left_39" type="car" route="left" depart="98" departSpeed="5"/>
    <vehicle id="down_40" type="car" route="down" depart="104" departSpeed="5"/>
    <vehicle id="down_41" type="car" route="down" depart="106" departSpeed="5"/>
    <vehicle id="left_42" type="car" route="left" depart="107" departSpeed="5"/>
    <vehicle id="up_43" type="car" route="up" depart="110" departSpeed="5"/>
    <vehicle id="left_44" type="car" route="left" depart="112" departSpeed="5"/>
    <vehicle id="right_45" type="car" route="right" depart="113" departSpeed="5"/>
    <vehicle id="down_46" type="car" route="down" depart="118" departSpeed="5"/>
    <vehicle id="up_47" type="car" route="up" depart="123" departSpeed="5"/>
    <vehicle id="right_48" type="car" route="right" depart="124" departSpeed="5"/>
    <vehicle id="left_49" type="car" route="left" depart="124" departSpeed="5"/>
    <vehicle id="down_50" type="car" route="down" depart="125" departSpeed="5"/>
    <vehicle id="down_51" type="car" route="down" depart="126" departSpeed="5"/>
    <vehicle id="up_52" type="car" route="up" depart="128" departSpeed="5"/>
    <vehicle id="right_53" type="car" route="right" depart="139" departSpeed="5"/>
    <vehicle id="up_54" type="car" route="up" depart="151" departSpeed="5"/>
    <vehicle id="up_55" type="car" route="up" depart="153" departSpeed="5"/>
    <vehicle id="down_56" type="car" route="down" depart="154" departSpeed="5"/>
    <vehicle id="left_57" type="car" route="left" depart="156" departSpeed="5"/>
    <vehicle id="right_58" type="car" route="right" depart="160" departSpeed="5"/>
    <vehicle id="up_59" type="car" route="up" depart="161" departSpeed="5"/>
    <vehicle id="left_60" type="car" route="left" depart="163" departSpeed="5"/>
    <vehicle id="right_61" type="car" route="right" depart="164" departSpeed="5"/>
    <vehicle id="right_62" type="car" route="right" depart="168" departSpeed="5"/>
    <vehicle id="up_63" type="car" route="up" depart="168" departSpeed="5"/>
    <vehicle id="left_64" type="car" route="left" depart="169" departSpeed="5"/>
    <vehicle id="down_65" type="car" route="down" depart="169" departSpeed="5"/>
    <vehicle id="right_66" type="car" route="right" depart="173" departSpeed="5"/>
    <vehicle id="left_67" type="car" route="left" depart="174" departSpeed="5"/>
    <vehicle id="up_68" type="car" route="up" depart="177" departSpeed="5"/>
    <vehicle id="left_69" type="car" route="left" depart="179" departSpeed="5"/>
    <vehicle id="down_70" type="car" route="down" depart="179" departSpeed="5"/>
    <vehicle id="left_71" type="car" route="left" depart="180" departSpeed="5"/>
    <vehicle id="left_72" type="car" route="left" depart="183" departSpeed="5"/>
    <vehicle id="up_73" type="car" route="up" depart="185" departSpeed="5"/>
    <vehicle id="right_74" type="car" route="right" depart="188" departSpeed="5"/>
    <vehicle id="up_75" type="car" route="up" depart="191" departSpeed="5"/>
    <vehicle id="up_76" type="car" route="up" depart="192" departSpeed="5"/>
    <vehicle id="down_77" type="car" route="down" depart="194" departSpeed="5"/>
    <vehicle id="up_78" type="car" route="up" depart="194" departSpeed="5"/>
    <vehicle id="left_79" type="car" route="left" depart="196" departSpeed="5"/>
    <vehicle id="right_80" type="car" route="right" depart="198" departSpeed="5"/>
    <vehicle id="right_81" type="car" route="right" depart="203" departSpeed="5"/>
    <vehicle id="left_82" type="car" route="left" depart="205" departSpeed="5"/>
    <vehicle id="up_83" type="car" route="up" depart="206" departSpeed="5"/>
    <vehicle id="right_84" type="car" route="right" depart="208" departSpeed="5"/>
    <vehicle id="right_85" type="car" route="right" depart="209" departSpeed="5"/>
    <vehicle id="down_86" type="car" route="down" depart="210" departSpeed="5"/>
    <vehicle id="down_87" type="car" route="down" depart="213" departSpeed="5"/>
    <vehicle id="right_88" type="car" route="right" depart="214" departSpeed="5"/>
    <vehicle id="down_89" type="car" route="down" depart="218" departSpeed="5"/>
    <vehicle id="down_90" type="car" route="down" depart="227" departSpeed="5"/>
    <vehicle id="right_91" type="car" route="right" depart="230" departSpeed="5"/>
    <vehicle id="right_92" type="car" route="right" depart="232" departSpeed="5"/>
    <vehicle id="left_93" type="car" route="left" depart="234" departSpeed="5"/>
    <vehicle id="left_94" type="car" route="left" depart="237" departSpeed="5"/>
    <vehicle id="down_95" type="car" route="down" depart="240" departSpeed="5"/>
    <vehicle id="right_96" type="car" route="right" depart="242" departSpeed="5"/>
    <vehicle id="left_97" type="car" route="left" depart="242" departSpeed="5"/>
    <vehicle id="up_98" type="car" route="up" depart="242" departSpeed="5"/>
    <vehicle id="right_99" type="car" route="right" depart="243" departSpeed="5"/>
    <vehicle id="left_100" type="car" route="left" depart="245" departSpeed="5"/>
    <vehicle id="left_101" type="car" route="left" depart="246" departSpeed="5"/>
    <vehicle id="right_102" type="car" route="right" depart="250" departSpeed="5"/>
    <vehicle id="up_103" type="car" route="up" depart="253" departSpeed="5"/>
    <vehicle id="down_104" type="car" route="down" depart="256" departSpeed="5"/>
    <vehicle id="left_105" type="car" route="left" depart="259" departSpeed="5"/>
    <vehicle id="up_106" type="car" route="up" depart="262" departSpeed="5"/>
    <vehicle id="right_107" type="car" route="right" depart="263" departSpeed="5"/>
    <vehicle id="right_108" type="car" route="right" depart="264" departSpeed="5"/>
    <vehicle id="left_109" type="car" route="left" depart="270" departSpeed="5"/>
    <vehicle id="up_110" type="car" route="up" depart="270" departSpeed="5"/>
    <vehicle id="down_111" type="car" route="down" depart="275" departSpeed="5"/>
    <vehicle id="up_112" type="car" route="up" depart="277" departSpeed="5"/>
    <vehicle id="down_113" type="car" route="down" depart="281" departSpeed="5"/>
    <vehicle id="right_114" type="car" route="right" depart="282" departSpeed="5"/>
    <vehicle id="left_115" type="car" route="left" depart="290" departSpeed="5"/>
    <vehicle id="left_116" type="car" route="left" depart="292" departSpeed="5"/>
    <vehicle id="right_117" type="car" route="right" depart="294" departSpeed="5"/>
    <vehicle id="down_118" type="car" route="down" depart="301" departSpeed="5"/>
    <vehicle id="right_119" type="car" route="right" depart="304" departSpeed="5"/>
    <vehicle id="right_120" type="car" route="right" depart="305" departSpeed="5"/>
    <vehicle id="up_121" type="car" route="up" depart="306" departSpeed="5"/>
    <vehicle id="down_122" type="car" route="down" depart="308" departSpeed="5"/>
    <vehicle id="left_123" type="car" route="left" depart="310" departSpeed="5"/>
    <vehicle id="up_124" type="car" route="up" depart="318" departSpeed="5"/>
    <vehicle id="down_125" type="car" route="down" depart="323" departSpeed="5"/>
    <vehicle id="up_126" type="car" route="up" depart="328" departSpeed="5"/>
    <vehicle id="left_127" type="car" route="left" depart="330" departSpeed="5"/>
    <vehicle id="left_128" type="car" route="left" depart="332" departSpeed="5"/>
    <vehicle id="down_129" type="car" route="down" depart="333" departSpeed="5"/>
    <vehicle id="right_130" type="car" route="right" depart="334" departSpeed="5"/>
    <vehicle id="down_131" type="car" route="down" depart="337" departSpeed="5"/>
    <vehicle id="down_132" type="car" route="down" depart="341" departSpeed="5"/>
    <vehicle id="up_133" type="car" route="up" depart="341" departSpeed="5"/>
    <vehicle id="down_134" type="car" route="down" depart="342" departSpeed="5"/>
    <vehicle id="up_135" type="car" route="up" depart="342" departSpeed="5"/>
    <vehicle id="right_136" type="car" route="right" depart="343" departSpeed="5"/>
    <vehicle id="up_137" type="car" route="up" depart="345" departSpeed="5"/>
    <vehicle id="left_138" type="car" route="left" depart="348" departSpeed="5"/>
    <vehicle id="left_139" type="car" route="left" depart="350" departSpeed="5"/>
    <vehicle id="left_140" type="car" route="left" depart="351" departSpeed="5"/>
    <vehicle id="down_141" type="car" route="down" depart="351" departSpeed="5"/>
    <vehicle id="down_142" type="car" route="down" depart="354" departSpeed="5"/>
    <vehicle id="down_143" type="car" route="down" depart="358" departSpeed="5"/>
    <vehicle id="up_144" type="car" route="up" depart="358" departSpeed="5"/>
    <vehicle id="down_145" type="car" route="down" depart="361" departSpeed="5"/>
    <vehicle id="up_146" type="car" route="up" depart="366" departSpeed="5"/>
    <vehicle id="left_147" type="car" route="left" depart="369" departSpeed="5"/>
    <vehicle id="right_148" type="car" route="right" depart="371" departSpeed="5"/>
    <vehicle id="left_149" type="car" route="left" depart="372" departSpeed="5"/>
    <vehicle id="down_150" type="car" route="down" depart="372" departSpeed="5"/>
    <vehicle id="up_151" type="car" route="up" depart="372" departSpeed="5"/>
    <vehicle id="right_152" type="car" route="right" depart="373" departSpeed="5"/>
    <vehicle id="right_153" type="car" route="right" depart="378" departSpeed="5"/>
    <vehicle id="left_154" type="car" route="left" depart="379" departSpeed="5"/>
    <vehicle id="right_155" type="car" route="right" depart="380" departSpeed="5"/>
    <vehicle id="up_156" type="car" route="up" depart="382" departSpeed="5"/>
    <vehicle id="right_157" type="car" route="right" depart="386" departSpeed="5"/>
    <vehicle id="left_158" type="car" route="left" depart="388" departSpeed="5"/>
    <vehicle id="down_159" type="car" route="down" depart="392" departSpeed="5"/>
    <vehicle id="down_160" type="car" route="down" depart="395" departSpeed="5"/>
    <vehicle id="up_161" type="car" route="up" depart="396" departSpeed="5"/>
    <vehicle id="right_162" type="car" route="right" depart="399" departSpeed="5"/>
    <vehicle id="right_163" type="car" route="right" depart="404" departSpeed="5"/>
    <vehicle id="up_164" type="car" route="up" depart="405" departSpeed="5"/>
    <vehicle id="left_165" type="car" route="left" depart="407" departSpeed="5"/>
    <vehicle id="down_166" type="car" route="down" depart="407" departSpeed="5"/>
    <vehicle id="left_167" type="car" route="left" depart="409" departSpeed="5"/>
    <vehicle id="up_168" type="car" route="up" depart="409" departSpeed="5"/>
    <vehicle id="left_169" type="car" route="left" depart="412" departSpeed="5"/>
    <vehicle id="left_170" type="car" route="left" depart="414" departSpeed="5"/>
    <vehicle id="up_171" type="car" route="up" depart="414" departSpeed="5"/>
    <vehicle id="down_172" type="car" route="down" depart="416" departSpeed="5"/>
    <vehicle id="left_173" type="car" route="left" depart="422" departSpeed="5"/>
    <vehicle id="right_174" type="car" route="right" depart="424" departSpeed="5"/>
    <vehicle id="right_175" type="car" route="right" depart="426" departSpeed="5"/>
    <vehicle id="up_176" type="car" route="up" depart="430" departSpeed="5"/>
    <vehicle id="down_177" type="car" route="down" depart="431" departSpeed="5"/>
    <vehicle id="up_178" type="car" route="up" depart="432" departSpeed="5"/>
    <vehicle id="left_179" type="car" route="left" depart="440" departSpeed="5"/>
    <vehicle id="down_180" type="car" route="down" depart="445" departSpeed="5"/>
    <vehicle id="right_181" type="car" route="right" depart="449" departSpeed="5"/>
    <vehicle id="right_182" type="car" route="right" depart="451" departSpeed="5"/>
    <vehicle id="left_183" type="car" route="left" depart="451" departSpeed="5"/>
    <vehicle id="down_184" type="car" route="down" depart="456" departSpeed="5"/>
    <vehicle id="up_185" type="car" route="up" depart="456" departSpeed="5"/>
    <vehicle id="right_186" type="car" route="right" depart="457" departSpeed="5"/>
    <vehicle id="up_187" type="car" route="up" depart="457" departSpeed="5"/>
    <vehicle id="down_188" type="car" route="down" depart="462" departSpeed="5"/>
    <vehicle id="down_189" type="car" route="down" depart="463" departSpeed="5"/>
    <vehicle id="right_190" type="car" route="right" depart="468" departSpeed="5"/>
    <vehicle id="right_191" type="car" route="right" depart="469" departSpeed="5"/>
    <vehicle id="right_192" type="car" route="right" depart="470" departSpeed="5"/>
    <vehicle id="up_193" type="car" route="up" depart="470" departSpeed="5"/>
    <vehicle id="up_194" type="car" route="up" depart="473" departSpeed="5"/>
    <vehicle id="down_195" type="car" route="down" depart="476" departSpeed="5"/>
    <vehicle id="down_196" type="car" route="down" depart="479" departSpeed="5"/>
    <vehicle id="down_197" type="car" route="down" depart="480" departSpeed="5"/>
    <vehicle id="down_198" type="car" route="down" depart="484" departSpeed="5"/>
    <vehicle id="right_199" type="car" route="right" depart="485" departSpeed="5"/>
    <vehicle id="left_200" type="car" route="left" depart="485" departSpeed="5"/>
    <vehicle id="down_201" type="car" route="down" depart="487" departSpeed="5"/>
    <vehicle id="right_202" type="car" route="right" depart="496" departSpeed="5"/>
    <vehicle id="up_203" type="car" route="up" depart="501" departSpeed="5"/>
    <vehicle id="left_204" type="car" route="left" depart="504" departSpeed="5"/>
    <vehicle id="down_205" type="car" route="down" depart="505" departSpeed="5"/>
    <vehicle id="left_206" type="car" route="left" depart="506" departSpeed="5"/>
    <vehicle id="down_207" type="car" route="down" depart="506" departSpeed="5"/>
    <vehicle id="left_208" type="car" route="left" depart="507" departSpeed="5"/>
    <vehicle id="right_209" type="car" route="right" depart="508" departSpeed="5"/>
    <vehicle id="up_210" type="car" route="up" depart="508" departSpeed="5"/>
    <vehicle id="down_211" type="car" route="down" depart="511" departSpeed="5"/>
    <vehicle id="right_212" type="car" route="right" depart="512" departSpeed="5"/>
    <vehicle id="up_213" type="car" route="up" depart="514" departSpeed="5"/>
    <vehicle id="left_214" type="car" route="left" depart="516" departSpeed="5"/>
    <vehicle id="left_215" type="car" route="left" depart="517" departSpeed="5"/>
    <vehicle id="right_216" type="car" route="right" depart="518" departSpeed="5"/>
    <vehicle id="right_217" type="car" route="right" depart="520" departSpeed="5"/>
    <vehicle id="up_218" type="car" route="up" depart="520" departSpeed="5"/>
    <vehicle id="right_219" type="car" route="right" depart="522" departSpeed="5"/>
    <vehicle id="left_220" type="car" route="left" depart="523" departSpeed="5"/>
    <vehicle id="up_221" type="car" route="up" depart="525" departSpeed="5"/>
    <vehicle id="up_222" type="car" route="up" depart="529" departSpeed="5"/>
    <vehicle id="right_223" type="car" route="right" depart="534" departSpeed="5"/>
    <vehicle id="right_224" type="car" route="right" depart="541" departSpeed="5"/>
    <vehicle id="up_225" type="car" route="up" depart="542" departSpeed="5"/>
    <vehicle id="left_226" type="car" route="left" depart="543" departSpeed="5"/>
    <vehicle id="down_227" type="car" route="down" depart="546" departSpeed="5"/>
    <vehicle id="right_228" type="car" route="right" depart="551" departSpeed="5"/>
    <vehicle id="down_229" type="car" route="down" depart="555" departSpeed="5"/>
    <vehicle id="right_230" type="car" route="right" depart="558" departSpeed="5"/>
    <vehicle id="right_231" type="car" route="right" depart="564" departSpeed="5"/>
    <vehicle id="right_232" type="car" route="right" depart="567" departSpeed="5"/>
    <vehicle id="right_233" type="car" route="right" depart="569" departSpeed="5"/>
    <vehicle id="down_234" type="car" route="down" depart="569" departSpeed="5"/>
    <vehicle id="up_235" type="car" route="up" depart="570" departSpeed="5"/>
    <vehicle id="up_236" type="car" route="up" depart="573" departSpeed="5"/>
    <vehicle id="up_237" type="car" route="up" depart="574" departSpeed="5"/>
    <vehicle id="right_238" type="car" route="right" depart="579" departSpeed="5"/>
    <vehicle id="down_239" type="car" route="down" depart="592" departSpeed="5"/>
    <vehicle id="right_240" type="car" route="right" depart="596" departSpeed="5"/>
    <vehicle id="right_241" type="car" route="right" depart="600" departSpeed="5"/>
    <vehicle id="up_242" type="car" route="up" depart="600" departSpeed="5"/>
    <vehicle id="left_243" type="car" route="left" depart="602" departSpeed="5"/>
    <vehicle id="down_244" type="car" route="down" depart="603" departSpeed="5"/>
    <vehicle id="right_245" type="car" route="right" depart="604" departSpeed="5"/>
    <vehicle id="down_246" type="car" route="down" depart="607" departSpeed="5"/>
    <vehicle id="up_247" type="car" route="up" depart="607" departSpeed="5"/>
    <vehicle id="up_248" type="car" route="up" depart="610" departSpeed="5"/>
    <vehicle id="down_249" type="car" route="down" depart="612" departSpeed="5"/>
    <vehicle id="down_250" type="car" route="down" depart="613" departSpeed="5"/>
    <vehicle id="left_251" type="car" route="left" depart="615" departSpeed="5"/>
    <vehicle id="up_252" type="car" route="up" depart="615" departSpeed="5"/>
    <vehicle id="left_253" type="car" route="left" depart="616" departSpeed="5"/>
    <vehicle id="up_254" type="car" route="up" depart="627" departSpeed="5"/>
    <vehicle id="right_255" type="car" route="right" depart="631" departSpeed="5"/>
    <vehicle id="down_256" type="car" route="down" depart="631" departSpeed="5"/>
    <vehicle id="right_257" type="car" route="right" depart="634" departSpeed="5"/>
    <vehicle id="down_258" type="car" route="down" depart="637" departSpeed="5"/>
    <vehicle id="up_259" type="car" route="up" depart="637" departSpeed="5"/>
    <vehicle id="down_260" type="car" route="down" depart="646" departSpeed="5"/>
    <vehicle id="down_261" type="car" route="down" depart="651" departSpeed="5"/>
    <vehicle id="left_262" type="car" route="left" depart="658" departSpeed="5"/>
    <vehicle id="right_263" type="car" route="right" depart="661" departSpeed="5"/>
    <vehicle id="up_264" type="car" route="up" depart="665" departSpeed="5"/>
    <vehicle id="left_265" type="car" route="left" depart="668" departSpeed="5"/>
    <vehicle id="down_266" type="car" route="down" depart="672" departSpeed="5"/>
    <vehicle id="down_267" type="car" route="down" depart="673" departSpeed="5"/>
    <vehicle id="up_268" type="car" route="up" depart="673" departSpeed="5"/>
    <vehicle id="right_269" type="car" route="right" depart="674" departSpeed="5"/>
    <vehicle id="right_270" type="car" route="right" depart="680" departSpeed="5"/>
    <vehicle id="left_271" type="car" route="left" depart="680" departSpeed="5"/>
    <vehicle id="up_272" type="car" route="up" depart="680" departSpeed="5"/>
    <vehicle id="left_273" type="car" route="left" depart="681" departSpeed="5"/>
    <vehicle id="left_274" type="car" route="left" depart="682" departSpeed="5"/>
    <vehicle id="left_275" type="car" route="left" depart="684" departSpeed="5"/>
    <vehicle id="down_276" type="car" route="down" depart="685" departSpeed="5"/>
    <vehicle id="down_277" type="car" route="down" depart="690" departSpeed="5"/>
    <vehicle id="down_278" type="car" route="down" depart="693" departSpeed="5"/>
    <vehicle id="right_279" type="car" route="right" depart="695" departSpeed="5"/>
    <vehicle id="down_280" type="car" route="down" depart="695" departSpeed="5"/>
    <vehicle id="right_281" type="car" route="right" depart="699" departSpeed="5"/>
    <vehicle id="down_282" type="car" route="down" depart="701" departSpeed="5"/>
    <vehicle id="up_283" type="car" route="up" depart="704" departSpeed="5"/>
    <vehicle id="down_284" type="car" route="down" depart="707" departSpeed="5"/>
    <vehicle id="left_285" type="car" route="left" depart="709" departSpeed="5"/>
    <vehicle id="left_286" type="car" route="left" depart="712" departSpeed="5"/>
    <vehicle id="down_287" type="car" route="down" depart="712" departSpeed="5"/>
    <vehicle id="right_288" type="car" route="right" depart="717" departSpeed="5"/>
    <vehicle id="down_289" type="car" route="down" depart="719" departSpeed="5"/>
    <vehicle id="left_290" type="car" route="left" depart="720" departSpeed="5"/>
    <vehicle id="up_291" type="car" route="up" depart="721" departSpeed="5"/>
    <vehicle id="up_292" type="car" route="up" depart="722" departSpeed="5"/>
    <vehicle id="down_293" type="car" route="down" depart="727" departSpeed="5"/>
    <vehicle id="left_294" type="car" route="left" depart="728" departSpeed="5"/>
    <vehicle id="up_295" type="car" route="up" depart="728" departSpeed="5"/>
    <vehicle id="down_296" type="car" route="down" depart="729" departSpeed="5"/>
    <vehicle id="up_297" type="car" route="up" depart="731" departSpeed="5"/>
    <vehicle id="up_298" type="car" route="up" depart="732" departSpeed="5"/>
    <vehicle id="down_299" type="car" route="down" depart="737" departSpeed="5"/>
    <vehicle id="right_300" type="car" route="right" depart="738" departSpeed="5"/>
    <vehicle id="right_301" type="car" route="right" depart="739" departSpeed="5"/>
    <vehicle id="left_302" type="car" route="left" depart="739" departSpeed="5"/>
    <vehicle id="down_303" type="car" route="down" depart="739" departSpeed="5"/>
    <vehicle id="down_304" type="car" route="down" depart="745" departSpeed="5"/>
    <vehicle id="up_305" type="car" route="up" depart="745" departSpeed="5"/>
    <vehicle id="up_306" type="car" route="up" depart="749" departSpeed="5"/>
    <vehicle id="up_307" type="car" route="up" depart="752" departSpeed="5"/>
    <vehicle id="left_308" type="car" route="left" depart="757" departSpeed="5"/>
    <vehicle id="down_309" type="car" route="down" depart="762" departSpeed="5"/>
    <vehicle id="left_310" type="car" route="left" depart="766" departSpeed="5"/>
    <vehicle id="left_311" type="car" route="left" depart="773" departSpeed="5"/>
    <vehicle id="left_312" type="car" route="left" depart="776" departSpeed="5"/>
    <vehicle id="down_313" type="car" route="down" depart="777" departSpeed="5"/>
    <vehicle id="left_314" type="car" route="left" depart="779" departSpeed="5"/>
    <vehicle id="down_315" type="car" route="down" depart="782" departSpeed="5"/>
    <vehicle id="left_316" type="car" route="left" depart="785" departSpeed="5"/>
    <vehicle id="down_317" type="car" route="down" depart="786" departSpeed="5"/>
    <vehicle id="down_318" type="car" route="down" depart="790" departSpeed="5"/>
    <vehicle id="left_319" type="car" route="left" depart="796" departSpeed="5"/>
    <vehicle id="up_320" type="car" route="up" depart="798" departSpeed="5"/>
    <vehicle id="right_321" type="car" route="right" depart="800" departSpeed="5"/>
    <vehicle id="down_322" type="car" route="down" depart="805" departSpeed="5"/>
    <vehicle id="left_323" type="car" route="left" depart="806" departSpeed="5"/>
    <vehicle id="right_324" type="car" route="right" depart="807" departSpeed="5"/>
    <vehicle id="left_325" type="car" route="left" depart="808" departSpeed="5"/>
    <vehicle id="left_326" type="car" route="left" depart="814" departSpeed="5"/>
    <vehicle id="right_327" type="car" route="right" depart="817" departSpeed="5"/>
    <vehicle id="left_328" type="car" route="left" depart="817" departSpeed="5"/>
    <vehicle id="left_329" type="car" route="left" depart="831" departSpeed="5"/>
    <vehicle id="right_330" type="car" route="right" depart="832" departSpeed="5"/>
    <vehicle id="right_331" type="car" route="right" depart="833" departSpeed="5"/>
    <vehicle id="left_332" type="car" route="left" depart="835" departSpeed="5"/>
    <vehicle id="left_333" type="car" route="left" depart="836" departSpeed="5"/>
    <vehicle id="left_334" type="car" route="left" depart="837" departSpeed="5"/>
    <vehicle id="down_335" type="car" route="down" depart="837" departSpeed="5"/>
    <vehicle id="up_336" type="car" route="up" depart="837" departSpeed="5"/>
    <vehicle id="right_337" type="car" route="right" depart="844" departSpeed="5"/>
    <vehicle id="down_338" type="car" route="down" depart="846" departSpeed="5"/>
    <vehicle id="up_339" type="car" route="up" depart="850" departSpeed="5"/>
    <vehicle id="down_340" type="car" route="down" depart="852" departSpeed="5"/>
    <vehicle id="right_341" type="car" route="right" depart="854" departSpeed="5"/>
    <vehicle id="right_342" type="car" route="right" depart="857" departSpeed="5"/>
    <vehicle id="left_343" type="car" route="left" depart="857" departSpeed="5"/>
    <vehicle id="down_344" type="car" route="down" depart="860" departSpeed="5"/>
    <vehicle id="up_345" type="car" route="up" depart="864" departSpeed="5"/>
    <vehicle id="right_346" type="car" route="right" depart="866" departSpeed="5"/>
    <vehicle id="right_347" type="car" route="right" depart="867" departSpeed="5"/>
    <vehicle id="right_348" type="car" route="right" depart="872" departSpeed="5"/>
    <vehicle id="up_349" type="car" route="up" depart="873" departSpeed="5"/>
    <vehicle id="down_350" type="car" route="down" depart="874" departSpeed="5"/>
    <vehicle id="down_351" type="car" route="down" depart="878" departSpeed="5"/>
    <vehicle id="right_352" type="car" route="right" depart="879" departSpeed="5"/>
    <vehicle id="left_353" type="car" route="left" depart="879" departSpeed="5"/>
    <vehicle id="down_354" type="car" route="down" depart="881" departSpeed="5"/>
    <vehicle id="up_355" type="car" route="up" depart="881" departSpeed="5"/>
    <vehicle id="down_356" type="car" route="down" depart="883" departSpeed="5"/>
    <vehicle id="right_357" type="car" route="right" depart="884" departSpeed="5"/>
    <vehicle id="up_358" type="car" route="up" depart="890" departSpeed="5"/>
    <vehicle id="up_359" type="car" route="up" depart="891" departSpeed="5"/>
    <vehicle id="left_360" type="car" route="left" depart="893" departSpeed="5"/>
    <vehicle id="down_361" type="car" route="down" depart="894" departSpeed="5"/>
    <vehicle id="left_362" type="car" route="left" depart="896" departSpeed="5"/>
    <vehicle id="up_363" type="car" route="up" depart="897" departSpeed="5"/>
    <vehicle id="right_364" type="car" route="right" depart="898" departSpeed="5"/>