<routes>
            <vType id="car" accel="1.0" decel="4.5" sigma="0.7" length="5" minGap="3" maxSpeed="15" guiShape="passenger"/>

            <route id="right" edges="1i 2o" />
            <route id="left" edges="2i 1o" />
            <route id="down" edges="4i 3o" />
            <route id="up" edges="3i 4o" />
    <vehicle id="right_0" type="car" route="right" depart="0" departSpeed="5"/>
    <vehicle id="up_1" type="car" route="up" depart="2" departSpeed="5"/>
    <vehicle id="left_2" type="car" route="left" depart="8" departSpeed="5"/>
    <vehicle id="down_3" type="car" route="down" depart="13" departSpeed="5"/>
    <vehicle id="left_4" type="car" route="left" depart="15" departSpeed="5"/>
    <vehicle id="left_5" type="car" route="left" depart="17" departSpeed="5"/>
    <vehicle id="left_6" type="car" route="left" depart="21" departSpeed="5"/>
    <vehicle id="left_7" type="car" route="left" depart="22" departSpeed="5"/>
    <vehicle id="up_8" type="car" route="up" depart="27" departSpeed="5"/>
    <vehicle id="up_9" type="car" route="up" depart="29" departSpeed="5"/>
    <vehicle id="down_10" type="car" route="down" depart="32" departSpeed="5"/>
    <vehicle id="down_11" type="car" route="down" depart="33" departSpeed="5"/>
    <vehicle id="up_12" type="car" route="up" depart="36" departSpeed="5"/>
    <vehicle id="right_13" type="car" route="right" depart="38" departSpeed="5"/>
    <vehicle id="up_14" type="car" route="up" depart="40" departSpeed="5"/>
    <vehicle id="right_15" type="car" route="right" depart="42" departSpeed="5"/>
    <vehicle id="left_16" type="car" route="left" depart="45" departSpeed="5"/>
    <vehicle id="up_17" type="car" route="up" depart="48" departSpeed="5"/>
    <vehicle id="up_18" type="car" route="up" depart="53" departSpeed="5"/>
    <vehicle id="up_19" type="car" route="up" depart="58" departSpeed="5"/>
    <vehicle id="down_20" type="car" route="down" depart="59" departSpeed="5"/>
    <vehicle id="down_21" type="car" route="down" depart="62" departSpeed="5"/>
    <vehicle id="right_22" type="car" route="right" depart="65" departSpeed="5"/>
    <vehicle id="up_23" type="car" route="up" depart="65" departSpeed="5"/>
    <vehicle id="down_24" type="car" route="down" depart="69" departSpeed="5"/>
    <vehicle id="right_25" type="car" route="right" depart="78" departSpeed="5"/>
    <vehicle id="up_26" type="car" route="up" depart="84" departSpeed="5"/>
    <vehicle id="left_27" type="car" route="left" depart="86" departSpeed="5"/>
    <vehicle id="right_28" type="car" route="right" depart="90" departSpeed="5"/>
    <vehicle id="up_29" type="car" route="up" depart="99" departSpeed="5"/>
    <vehicle id="right_30" type="car" route="right" depart="100" departSpeed="5"/>
    <vehicle id="left_31" type="car" route="left" depart="100" departSpeed="5"/>
    <vehicle id="up_32" type="car" route="up" depart="100" departSpeed="5"/>
    <vehicle id="left_33" type="car" route="left" depart="101" departSpeed="5"/>
    <vehicle id="left_34" type="car" route="left" depart="102" departSpeed="5"/>
    <vehicle id="right_35" type="car" route="right" depart="107" departSpeed="5"/>
    <vehicle id="up_36" type="car" route="up" depart="107" departSpeed="5"/>
    <vehicle id="right_37" type="car" route="right" depart="112" departSpeed="5"/>
    <vehicle id="right_38" type="car" route="right" depart="113" departSpeed="5"/>
    <vehicle id="down_39" type="car" route="down" depart="114" departSpeed="5"/>
    <vehicle id="left_40" type="car" route="left" depart="124" departSpeed="5"/>
    <vehicle id="down_41" type="car" route="down" depart="125" departSpeed="5"/>
    <vehicle id="up_42" type="car" route="up" depart="126" departSpeed="5"/>
    <vehicle id="right_43" type="car" route="right" depart="129" departSpeed="5"/>
    <vehicle id="up_44" type="car" route="up" depart="131" departSpeed="5"/>
    <vehicle id="right_45" type="car" route="right" depart="136" departSpeed="5"/>
    <vehicle id="down_46" type="car" route="down" depart="137" departSpeed="5"/>
    <vehicle id="up_47" type="car" route="up" depart="137" departSpeed="5"/>
    <vehicle id="left_48" type="car" route="left" depart="142" departSpeed="5"/>
    <vehicle id="left_49" type="car" route="left" depart="143" departSpeed="5"/>
    <vehicle id="up_50" type="car" route="up" depart="143" departSpeed="5"/>
    <vehicle id="right_51" type="car" route="right" depart="146" departSpeed="5"/>
    <vehicle id="up_52" type="car" route="up" depart="151" departSpeed="5"/>
    <vehicle id="right_53" type="car" route="right" depart="152" departSpeed="5"/>
    <vehicle id="down_54" type="car" route="down" depart="153" departSpeed="5"/>
    <vehicle id="right_55" type="car" route="right" depart="156" departSpeed="5"/>
    <vehicle id="left_56" type="car" route="left" depart="157" departSpeed="5"/>
    <vehicle id="up_57" type="car" route="up" depart="159" departSpeed="5"/>
    <vehicle id="right_58" type="car" route="right" depart="161" departSpeed="5"/>
    <vehicle id="up_59" type="car" route="up" depart="165" departSpeed="5"/>
    <vehicle id="up_60" type="car" route="up" depart="170" departSpeed="5"/>
    <vehicle id="up_61" type="car" route="up" depart="174" departSpeed="5"/>
    <vehicle id="up_62" type="car" route="up" depart="175" departSpeed="5"/>
    <vehicle id="left_63" type="car" route="left" depart="182" departSpeed="5"/>
    <vehicle id="right_64" type="car" route="right" depart="185" departSpeed="5"/>
    <vehicle id="left_65" type="car" route="left" depart="190" departSpeed="5"/>
    <vehicle id="right_66" type="car" route="right" depart="193" departSpeed="5"/>
    <vehicle id="up_67" type="car" route="up" depart="193" departSpeed="5"/>
    <vehicle id="down_68" type="car" route="down" depart="197" departSpeed="5"/>
    <vehicle id="up_69" type="car" route="up" depart="198" departSpeed="5"/>
    <vehicle id="down_70" type="car" route="down" depart="200" departSpeed="5"/>
    <vehicle id="left_71" type="car" route="left" depart="203" departSpeed="5"/>
    <vehicle id="up_72" type="car" route="up" depart="206" departSpeed="5"/>
    <vehicle id="right_73" type="car" route="right" depart="216" departSpeed="5"/>
    <vehicle id="left_74" type="car" route="left" depart="219" departSpeed="5"/>
    <vehicle id="down_75" type="car" route="down" depart="219" departSpeed="5"/>
    <vehicle id="down_76" type="car" route="down" depart="225" departSpeed="5"/>
    <vehicle id="up_77" type="car" route="up" depart="231" departSpeed="5"/>
    <vehicle id="left_78" type="car" route="left" depart="232" departSpeed="5"/>
    <vehicle id="down_79" type="car" route="down" depart="235" departSpeed="5"/>
    <vehicle id="right_80" type="car" route="right" depart="241" departSpeed="5"/>
    <vehicle id="down_81" type="car" route="down" depart="245" departSpeed="5"/>
    <vehicle id="left_82" type="car" route="left" depart="248" departSpeed="5"/>
    <vehicle id="up_83" type="car" route="up" depart="261" departSpeed="5"/>
    <vehicle id="up_84" type="car" route="up" depart="265" departSpeed="5"/>
    <vehicle id="down_85" type="car" route="down" depart="266" departSpeed="5"/>
    <vehicle id="right_86" type="car" route="right" depart="270" departSpeed="5"/>
    <vehicle id="left_87" type="car" route="left" depart="272" departSpeed="5"/>
    <vehicle id="up_88" type="car" route="up" depart="274" departSpeed="5"/>
    <vehicle id="down_89" type="car" route="down" depart="275" departSpeed="5"/>
    <vehicle id="up_90" type="car" route="up" depart="275" departSpeed="5"/>
    <vehicle id="left_91" type="car" route="left" depart="277" departSpeed="5"/>
    <vehicle id="left_92" type="car" route="left" depart="278" departSpeed="5"/>
    <vehicle id="down_93" type="car" route="down" depart="284" departSpeed="5"/>
    <vehicle id="right_94" type="car" route="right" depart="285" departSpeed="5"/>
    <vehicle id="up_95" type="car" route="up" depart="291" departSpeed="5"/>
    <vehicle id="left_96" type="car" route="left" depart="296" departSpeed="5"/>
    <vehicle id="right_97" type="car" route="right" depart="297" departSpeed="5"/>
    <vehicle id="right_98" type="car" route="right" depart="302" departSpeed="5"/>
    <vehicle id="down_99" type="car" route="down" depart="303" departSpeed="5"/>
    <vehicle id="up_100" type="car" route="up" depart="304" departSpeed="5"/>
    <vehicle id="up_101" type="car" route="up" depart="305" departSpeed="5"/>
    <vehicle id="up_102" type="car" route="up" depart="308" departSpeed="5"/>
    <vehicle id="up_103" type="car" route="up" depart="309" departSpeed="5"/>
    <vehicle id="down_104" type="car" route="down" depart="316" departSpeed="5"/>
    <vehicle id="up_105" type="car" route="up" depart="319" departSpeed="5"/>
    <vehicle id="right_106" type="car" route="right" depart="320" departSpeed="5"/>
    <vehicle id="up_107" type="car" route="up" depart="320" departSpeed="5"/>
    <vehicle id="up_108" type="car" route="up" depart="321" departSpeed="5"/>
    <vehicle id="left_109" type="car" route="left" depart="322" departSpeed="5"/>
    <vehicle id="down_110" type="car" route="down" depart="325" departSpeed="5"/>
    <vehicle id="down_111" type="car" route="down" depart="326" departSpeed="5"/>
    <vehicle id="left_112" type="car" route="left" depart="328" departSpeed="5"/>
    <vehicle id="down_113" type="car" route="down" depart="336" departSpeed="5"/>
    <vehicle id="left_114" type="car" route="left" depart="340" departSpeed="5"/>
    <vehicle id="up_115" type="car" route="up" depart="340" departSpeed="5"/>
    <vehicle id="down_116" type="car" route="down" depart="343" departSpeed="5"/>
    <vehicle id="down_117" type="car" route="down" depart="346" departSpeed="5"/>
    <vehicle id="down_118" type="car" route="down" depart="350" departSpeed="5"/>
    <vehicle id="down_119" type="car" route="down" depart="354" departSpeed="5"/>
    <vehicle id="down_120" type="car" route="down" depart="355" departSpeed="5"/>
    <vehicle id="down_121" type="car" route="down" depart="356" departSpeed="5"/>
    <vehicle id="up_122" type="car" route="up" depart="357" departSpeed="5"/>
    <vehicle id="down_123" type="car" route="down" depart="358" departSpeed="5"/>
    <vehicle id="up_124" type="car" route="up" depart="362" departSpeed="5"/>
    <vehicle id="down_125" type="car" route="down" depart="366" departSpeed="5"/>
    <vehicle id="down_126" type="car" route="down" depart="367" departSpeed="5"/>
    <vehicle id="down_127" type="car" route="down" depart="368" departSpeed="5"/>
    <vehicle id="right_128" type="car" route="right" depart="377" departSpeed="5"/>
    <vehicle id="up_129" type="car" route="up" depart="378" departSpeed="5"/>
    <vehicle id="up_130" type="car" route="up" depart="390" departSpeed="5"/>
    <vehicle id="left_131" type="car" route="left" depart="395" departSpeed="5"/>
    <vehicle id="down_132" type="car" route="down" depart="395" departSpeed="5"/>
    <vehicle id="right_133" type="car" route="right" depart="396" departSpeed="5"/>
    <vehicle id="up_134" type="car" route="up" depart="398" departSpeed="5"/>
    <vehicle id="down_135" type="car" route="down" depart="404" departSpeed="5"/>
    <vehicle id="right_136" type="car" route="right" depart="405" departSpeed="5"/>
    <vehicle id="down_137" type="car" route="down" depart="405" departSpeed="5"/>
    <vehicle id="down_138" type="car" route="down" depart="407" departSpeed="5"/>
    <vehicle id="left_139" type="car" route="left" depart="409" departSpeed="5"/>
    <vehicle id="right_140" type="car" route="right" depart="413" departSpeed="5"/>
    <vehicle id="up_141" type="car" route="up" depart="416" departSpeed="5"/>
    <vehicle id="down_142" type="car" route="down" depart="421" departSpeed="5"/>
    <vehicle id="left_143" type="car" route="left" depart="424" departSpeed="5"/>
    <vehicle id="up_144" type="car" route="up" depart="424" departSpeed="5"/>
    <vehicle id="up_145" type="car" route="up" depart="427" departSpeed="5"/>
    <vehicle id="down_146" type="car" route="down" depart="428" departSpeed="5"/>
    <vehicle id="down_147" type="car" route="down" depart="430" departSpeed="5"/>
    <vehicle id="down_148" type="car" route="down" depart="431" departSpeed="5"/>
    <vehicle id="up_149" type="car" route="up" depart="432" departSpeed="5"/>
    <vehicle id="up_150" type="car" route="up" depart="434" departSpeed="5"/>
    <vehicle id="up_151" type="car" route="up" depart="436" departSpeed="5"/>
    <vehicle id="down_152" type="car" route="down" depart="446" departSpeed="5"/>
    <vehicle id="down_153" type="car" route="down" depart="448" departSpeed="5"/>
    <vehicle id="right_154" type="car" route="right" depart="449" departSpeed="5"/>
    <vehicle id="left_155" type="car" route="left" depart="453" departSpeed="5"/>
    <vehicle id="down_156" type="car" route="down" depart="453" departSpeed="5"/>
    <vehicle id="up_157" type="car" route="up" depart="453" departSpeed="5"/>
    <vehicle id="left_158" type="car" route="left" depart="454" departSpeed="5"/>
    <vehicle id="left_159" type="car" route="left" depart="456" departSpeed="5"/>
    <vehicle id="up_160" type="car" route="up" depart="456" departSpeed="5"/>
    <vehicle id="left_161" type="car" route="left" depart="457" departSpeed="5"/>
    <vehicle id="left_162" type="car" route="left" depart="459" departSpeed="5"/>
    <vehicle id="down_163" type="car" route="down" depart="461" departSpeed="5"/>
    <vehicle id="right_164" type="car" route="right" depart="465" departSpeed="5"/>
    <vehicle id="right_165" type="car" route="right" depart="469" departSpeed="5"/>
    <vehicle id="left_166" type="car" route="left" depart="469" departSpeed="5"/>
    <vehicle id="down_167" type="car" route="down" depart="470" departSpeed="5"/>
    <vehicle id="up_168" type="car" route="up" depart="470" departSpeed="5"/>
    <vehicle id="right_169" type="car" route="right" depart="477" departSpeed="5"/>
    <vehicle id="left_170" type="car" route="left" depart="477" departSpeed="5"/>
    <vehicle id="left_171" type="car" route="left" depart="484" departSpeed="5"/>
    <vehicle id="down_172" type="car" route="down" depart="484" departSpeed="5"/>
    <vehicle id="up_173" type="car" route="up" depart="484" departSpeed="5"/>
    <vehicle id="right_174" type="car" route="right" depart="487" departSpeed="5"/>
    <vehicle id="left_175" type="car" route="left" depart="490" departSpeed="5"/>
    <vehicle id="left_176" type="car" route="left" depart="495" departSpeed="5"/>
    <vehicle id="left_177" type="car" route="left" depart="500" departSpeed="5"/>
    <vehicle id="up_178" type="car" route="up" depart="502" departSpeed="5"/>
    <vehicle id="down_179" type="car" route="down" depart="510" departSpeed="5"/>
    <vehicle id="down_180" type="car" route="down" depart="515" departSpeed="5"/>
    <vehicle id="down_181" type="car" route="down" depart="518" departSpeed="5"/>
    <vehicle id="up_182" type="car" route="up" depart="519" departSpeed="5"/>
    <vehicle id="left_183" type="car" route="left" depart="520" departSpeed="5"/>
    <vehicle id="down_184" type="car" route="down" depart="520" departSpeed="5"/>
    <vehicle id="right_185" type="car" route="right" depart="523" departSpeed="5"/>
    <vehicle id="down_186" type="car" route="down" depart="524" departSpeed="5"/>
    <vehicle id="right_187" type="car" route="right" depart="525" departSpeed="5"/>
    <vehicle id="right_188" type="car" route="right" depart="527" departSpeed="5"/>
    <vehicle id="down_189" type="car" route="down" depart="527" departSpeed="5"/>
    <vehicle id="down_190" type="car" route="down" depart="530" departSpeed="5"/>
    <vehicle id="right_191" type="car" route="right" depart="532" departSpeed="5"/>
    <vehicle id="down_192" type="car" route="down" depart="534" departSpeed="5"/>
    <vehicle id="down_193" type="car" route="down" depart="541" departSpeed="5"/>
    <vehicle id="up_194" type="car" route="up" depart="544" departSpeed="5"/>
    <vehicle id="up_195" type="car" route="up" depart="545" departSpeed="5"/>
    <vehicle id="down_196" type="car" route="down" depart="550" departSpeed="5"/>
    <vehicle id="right_197" type="car" route="right" depart="552" departSpeed="5"/>
    <vehicle id="up_198" type="car" route="up" depart="552" departSpeed="5"/>
    <vehicle id="right_199" type="car" route="right" depart="553" departSpeed="5"/>
    <vehicle id="down_200" type="car" route="down" depart="553" departSpeed="5"/>
    <vehicle id="down_201" type="car" route="down" depart="554" departSpeed="5"/>
    <vehicle id="right_202" type="car" route="right" depart="555" departSpeed="5"/>
    <vehicle id="left_203" type="car" route="left" depart="559" departSpeed="5"/>
    <vehicle id="up_204" type="car" route="up" depart="560" departSpeed="5"/>
    <vehicle id="right_205" type="car" route="right" depart="562" departSpeed="5"/>
    <vehicle id="up_206" type="car" route="up" depart="562" departSpeed="5"/>
    <vehicle id="right_207" type="car" route="right" depart="565" departSpeed="5"/>
    <vehicle id="right_208" type="car" route="right" depart="566" departSpeed="5"/>
    <vehicle id="down_209" type="car" route="down" depart="569" departSpeed="5"/>
    <vehicle id="down_210" type="car" route="down" depart="570" departSpeed="5"/>
    <vehicle id="up_211" type="car" route="up" depart="574" departSpeed="5"/>
    <vehicle id="right_212" type="car" route="right" depart="576" departSpeed="5"/>
    <vehicle id="right_213" type="car" route="right" depart="580" departSpeed="5"/>
    <vehicle id="right_214" type="car" route="right" depart="581" departSpeed="5"/>
    <vehicle id="right_215" type="car" route="right" depart="582" departSpeed="5"/>
    <vehicle id="left_216" type="car" route="left" depart="584" departSpeed="5"/>
    <vehicle id="left_217" type="car" route="left" depart="585" departSpeed="5"/>
    <vehicle id="up_218" type="car" route="up" depart="589" departSpeed="5"/>
    <vehicle id="right_219" type="car" route="right" depart="590" departSpeed="5"/>
    <vehicle id="left_220" type="car" route="left" depart="591" departSpeed="5"/>
    <vehicle id="up_221" type="car" route="up" depart="592" departSpeed="5"/>
    <vehicle id="right_222" type="car" route="right" depart="593" departSpeed="5"/>
    <vehicle id="down_223" type="car" route="down" depart="593" departSpeed="5"/>
    <vehicle id="left_224" type="car" route="left" depart="600" departSpeed="5"/>
    <vehicle id="down_225" type="car" route="down" depart="609" departSpeed="5"/>
    <vehicle id="up_226" type="car" route="up" depart="609" departSpeed="5"/>
    <vehicle id="right_227" type="car" route="right" depart="615" departSpeed="5"/>
    <vehicle id="down_228" type="car" route="down" depart="615" departSpeed="5"/>
    <vehicle id="up_229" type="car" route="up" depart="616" departSpeed="5"/>
    <vehicle id="up_230" type="car" route="up" depart="619" departSpeed="5"/>
    <vehicle id="right_231" type="car" route="right" depart="621" departSpeed="5"/>
    <vehicle id="right_232" type="car" route="right" depart="631" departSpeed="5"/>
    <vehicle id="left_233" type="car" route="left" depart="634" departSpeed="5"/>
    <vehicle id="right_234" type="car" route="right" depart="635" departSpeed="5"/>
    <vehicle id="down_235" type="car" route="down" depart="635" departSpeed="5"/>
    <vehicle id="left_236" type="car" route="left" depart="636" departSpeed="5"/>
    <vehicle id="right_237" type="car" route="right" depart="637" departSpeed="5"/>
    <vehicle id="left_238" type="car" route="left" depart="637" departSpeed="5"/>
    <vehicle id="right_239" type="car" route="right" depart="638" departSpeed="5"/>
    <vehicle id="down_240" type="car" route="down" depart="639" departSpeed="5"/>
    <vehicle id="up_241" type="car" route="up" depart="641" departSpeed="5"/>
    <vehicle id="up_242" type="car" route="up" depart="642" departSpeed="5"/>
    <vehicle id="down_243" type="car" route="down" depart="645" departSpeed="5"/>
    <vehicle id="up_244" type="car" route="up" depart="646" departSpeed="5"/>
    <vehicle id="left_245" type="car" route="left" depart="649" departSpeed="5"/>
    <vehicle id="down_246" type="car" route="down" depart="649" departSpeed="5"/>
    <vehicle id="up_247" type="car" route="up" depart="650" departSpeed="5"/>
    <vehicle id="left_248" type="car" route="left" depart="653" departSpeed="5"/>
    <vehicle id="up_249" type="car" route="up" depart="655" departSpeed="5"/>
    <vehicle id="down_250" type="car" route="down" depart="663" departSpeed="5"/>
    <vehicle id="right_251" type="car" route="right" depart="665" departSpeed="5"/>
    <vehicle id="left_252" type="car" route="left" depart="666" departSpeed="5"/>
    <vehicle id="up_253" type="car" route="up" depart="666" departSpeed="5"/>
    <vehicle id="right_254" type="car" route="right" depart="667" departSpeed="5"/>
    <vehicle id="down_255" type="car" route="down" depart="672" departSpeed="5"/>
    <vehicle id="left_256" type="car" route="left" depart="674" departSpeed="5"/>
    <vehicle id="down_257" type="car" route="down" depart="675" departSpeed="5"/>
    <vehicle id="left_258" type="car" route="left" depart="676" departSpeed="5"/>
    <vehicle id="right_259" type="car" route="right" depart="678" departSpeed="5"/>
    <vehicle id="left_260" type="car" route="left" depart="679" departSpeed="5"/>
    <vehicle id="down_261" type="car" route="down" depart="683" departSpeed="5"/>
    <vehicle id="up_262" type="car" route="up" depart="688" departSpeed="5"/>
    <vehicle id="down_263" type="car" route="down" depart="690" departSpeed="5"/>
    <vehicle id="up_264" type="car" route="up" depart="690" departSpeed="5"/>
    <vehicle id="right_265" type="car" route="right" depart="694" departSpeed="5"/>
    <vehicle id="up_266" type="car" route="up" depart="694" departSpeed="5"/>
    <vehicle id="right_267" type="car" route="right" depart="699" departSpeed="5"/>
    <vehicle id="right_268" type="car" route="right" depart="700" departSpeed="5"/>
    <vehicle id="left_269" type="car" route="left" depart="701" departSpeed="5"/>
    <vehicle id="up_270" type="car" route="up" depart="702" departSpeed="5"/>
    <vehicle id="down_271" type="car" route="down" depart="707" departSpeed="5"/>
    <vehicle id="right_272" type="car" route="right" depart="709" departSpeed="5"/>
    <vehicle id="left_273" type="car" route="left" depart="709" departSpeed="5"/>
    <vehicle id="down_274" type="car" route="down" depart="710" departSpeed="5"/>
    <vehicle id="up_275" type="car" route="up" depart="710" departSpeed="5"/>
    <vehicle id="up_276" type="car" route="up" depart="714" departSpeed="5"/>
    <vehicle id="right_277" type="car" route="right" depart="717" departSpeed="5"/>
    <vehicle id="up_278" type="car" route="up" depart="728" departSpeed="5"/>
    <vehicle id="right_279" type="car" route="right" depart="729" departSpeed="5"/>
    <vehicle id="right_280" type="car" route="right" depart="730" departSpeed="5"/>
    <vehicle id="up_281" type="car" route="up" depart="730" departSpeed="5"/>
    <vehicle id="left_282" type="car" route="left" depart="731" departSpeed="5"/>
    <vehicle id="right_283" type="car" route="right" depart="733" departSpeed="5"/>
    <vehicle id="right_284" type="car" route="right" depart="736" departSpeed="5"/>
    <vehicle id="right_285" type="car" route="right" depart="738" departSpeed="5"/>
    <vehicle id="up_286" type="car" route="up" depart="740" departSpeed="5"/>
    <vehicle id="right_287" type="car" route="right" depart="742" departSpeed="5"/>
    <vehicle id="right_288" type="car" route="right" depart="743" departSpeed="5"/>
    <vehicle id="down_289" type="car" route="down" depart="744" departSpeed="5"/>
    <vehicle id="down_290" type="car" route="down" depart="746" departSpeed="5"/>
    <vehicle id="left_291" type="car" route="left" depart="747" departSpeed="5"/>
    <vehicle id="right_292" type="car" route="right" depart="749" departSpeed="5"/>
    <vehicle id="up_293" type="car" route="up" depart="754" departSpeed="5"/>
    <vehicle id="left_294" type="car" route="left" depart="759" departSpeed="5"/>
    <vehicle id="down_295" type="car" route="down" depart="764" departSpeed="5"/>
    <vehicle id="down_296" type="car" route="down" depart="765" departSpeed="5"/>
    <vehicle id="up_297" type="car" route="up" depart="765" departSpeed="5"/>
    <vehicle id="left_298" type="car" route="left" depart="773" departSpeed="5"/>
    <vehicle id="down_299" type="car" route="down" depart="773" departSpeed="5"/>
    <vehicle id="left_300" type="car" route="left" depart="774" departSpeed="5"/>
    <vehicle id="up_301" type="car" route="up" depart="774" departSpeed="5"/>
    <vehicle id="left_302" type="car" route="left" depart="775" departSpeed="5"/>
    <vehicle id="down_303" type="car" route="down" depart="777" departSpeed="5"/>
    <vehicle id="right_304" type="car" route="right" depart="778" departSpeed="5"/>
    <vehicle id="up_305" type="car" route="up" depart="778" departSpeed="5"/>
    <vehicle id="left_306" type="car" route="left" depart="781" departSpeed="5"/>
    <vehicle id="right_307" type="car" route="right" depart="783" departSpeed="5"/>
    <vehicle id="right_308" type="car" route="right" depart="790" departSpeed="5"/>
    <vehicle id="right_309" type="car" route="right" depart="791" departSpeed="5"/>
    <vehicle id="right_310" type="car" route="right" depart="797" departSpeed="5"/>
    <vehicle id="up_311" type="car" route="up" depart="801" departSpeed="5"/>
    <vehicle id="left_312" type="car" route="left" depart="802" departSpeed="5"/>
    <vehicle id="right_313" type="car" route="right" depart="803" departSpeed="5"/>
    <vehicle id="right_314" type="car" route="right" depart="807" departSpeed="5"/>
    <vehicle id="left_315" type="car" route="left" depart="809" departSpeed="5"/>
    <vehicle id="right_316" type="car" route="right" depart="810" departSpeed="5"/>
    <vehicle id="down_317" type="car" route="down" depart="811" departSpeed="5"/>
    <vehicle id="left_318" type="car" route="left" depart="813" departSpeed="5"/>
    <vehicle id="left_319" type="car" route="left" depart="814" departSpeed="5"/>
    <vehicle id="up_320" type="car" route="up" depart="815" departSpeed="5"/>
    <vehicle id="left_321" type="car" route="left" depart="817" departSpeed="5"/>
    <vehicle id="left_322" type="car" route="left" depart="819" departSpeed="5"/>
    <vehicle id="up_323" type="car" route="up" depart="826" departSpeed="5"/>
    <vehicle id="down_324" type="car" route="down" depart="827" departSpeed="5"/>
    <vehicle id="up_325" type="car" route="up" depart="829" departSpeed="5"/>
    <vehicle id="up_326" type="car" route="up" depart="830" departSpeed="5"/>
    <vehicle id="right_327" type="car" route="right" depart="832" departSpeed="5"/>
    <vehicle id="up_328" type="car" route="up" depart="835" departSpeed="5"/>
    <vehicle id="left_329" type="car" route="left" depart="836" departSpeed="5"/>
    <vehicle id="up_330" type="car" route="up" depart="838" departSpeed="5"/>
    <vehicle id="up_331" type="car" route="up" depart="841" departSpeed="5"/>
    <vehicle id="right_332" type="car" route="right" depart="847" departSpeed="5"/>
    <vehicle id="left_333" type="car" route="left" depart="848" departSpeed="5"/>
    <vehicle id="right_334" type="car" route="right" depart="850" departSpeed="5"/>
    <vehicle id="down_335" type="car" route="down" depart="850" departSpeed="5"/>
    <vehicle id="up_336" type="car" route="up" depart="851" departSpeed="5"/>
    <vehicle id="right_337" type="car" route="right" depart="856" departSpeed="5"/>
    <vehicle id="down_338" type="car" route="down" depart="856" departSpeed="5"/>
    <vehicle id="down_339" type="car" route="down" depart="857" departSpeed="5"/>
    <vehicle id="left_340" type="car" route="left" depart="860" departSpeed="5"/>
    <vehicle id="down_341" type="car" route="down" depart="860" departSpeed="5"/>
    <vehicle id="up_342" type="car" route="up" depart="862" departSpeed="5"/>
    <vehicle id="left_343" type="car" route="left" depart="863" departSpeed="5"/>
    <vehicle id="up_344" type="car" route="up" depart="867" departSpeed="5"/>
    <vehicle id="down_345" type="car" route="down" depart="868" departSpeed="5"/>
    <vehicle id="right_346" type="car" route="right" depart="873" departSpeed="5"/>
    <vehicle id="down_347" type="car" route="down" depart="880" departSpeed="5"/>
    <vehicle id="left_348" type="car" route="left" depart="888" departSpeed="5"/>
    <vehicle id="down_349" type="car" route="down" depart="889" departSpeed="5"/>
    <vehicle id="up_350" type="car" route="up" depart="890" departSpeed="5"/>
    <vehicle id="left_351" type="car" route="left" depart="892" departSpeed="5"/>
    <vehicle id="left_352" type="car" route="left" depart="896" departSpeed="5"/>
    <vehicle id="down_353" type="car" route="down" depart="899" departSpeed="5"/>
    <vehicle id="left_354" type="car" route="left" depart="900" departSpeed="5"/>
    <vehicle id="up_355" type="car" route="up" depart="902" departSpeed="5"/>
    <vehicle id="right_356" type="car" route="right" depart="903" departSpeed="5"/>
    <vehicle id="up_357" type="car" route="up" depart="903" departSpeed="5"/>
    <vehicle id="up_358" type="car" route="up" depart="904" departSpeed="5"/>
    <vehicle id="left_359" type="car" route="left" depart="905" departSpeed="5"/>
    <vehicle id="up_360" type="car" route="up" depart="905" departSpeed="5"/>
    <vehicle id="right_361" type="car" route="right" depart="906" departSpeed="5"/>
    <vehicle id="up_362" type="car" route="up" depart="912" departSpeed="5"/>
    <vehicle id="right_363" type="car" route="right" depart="916" departSpeed="5"/>
    <vehicle id="right_364" type="car" route="right" depart="923" departSpeed="5"/>
    <vehicle id="left_365" type="car" route="left" depart="924" departSpeed="5"/>