<routes>
                               <vType id="car" accel="1.0" decel="4.5" sigma="0.7" length="5" minGap="3" maxSpeed="15" guiShape="passenger"/>

                               <route id="WETop" edges="5i 1i 2o" />
                               <route id="EWTop" edges="2i 1o 5o" />
                               <route id="NS" edges="4i 3o 8i" />
                               <route id="SN" edges="8o 3i 4o" />
                               <route id="WEBottom" edges="7o 11o" />
                               <route id="EWBottom" edges="11i 7i" />

                               <route id="t2" edges="8o 7i" />
                               <route id="t3" edges="4i 1o 6i" />
                               <route id="t4" edges="7o 3i 2o" />
                               <route id="t5" edges="6o 1i 4o" />
                               <route id="t6" edges="5i 1i 3o 11o" />
                               
    <vehicle id="WETop_0" type="car" route="WETop" depart="0" departSpeed="5"/>
    <vehicle id="EWTop_1" type="car" route="EWTop" depart="0" departSpeed="5"/>
    <vehicle id="t4_2" type="car" route="t4" depart="0" departSpeed="5"/>
    <vehicle id="WEBottom_3" type="car" route="WEBottom" depart="1" departSpeed="5"/>
    <vehicle id="EWBottom_4" type="car" route="EWBottom" depart="3" departSpeed="5"/>
    <vehicle id="t6_5" type="car" route="t6" depart="3" departSpeed="5"/>
    <vehicle id="WETop_6" type="car" route="WETop" depart="5" departSpeed="5"/>
    <vehicle id="EWBottom_7" type="car" route="EWBottom" depart="6" departSpeed="5"/>
    <vehicle id="t4_8" type="car" route="t4" depart="6" departSpeed="5"/>
    <vehicle id="t6_9" type="car" route="t6" depart="6" departSpeed="5"/>
    <vehicle id="NS_10" type="car" route="NS" depart="7" departSpeed="5"/>
    <vehicle id="t2_11" type="car" route="t2" depart="8" departSpeed="5"/>
    <vehicle id="SN_12" type="car" route="SN" depart="9" departSpeed="5"/>
    <vehicle id="t4_13" type="car" route="t4" depart="9" departSpeed="5"/>
    <vehicle id="WETop_14" type="car" route="WETop" depart="10" departSpeed="5"/>
    <vehicle id="EWTop_15" type="car" route="EWTop" depart="10" departSpeed="5"/>
    <vehicle id="t3_16" type="car" route="t3" depart="13" departSpeed="5"/>
    <vehicle id="EWTop_17" type="car" route="EWTop" depart="15" departSpeed="5"/>
    <vehicle id="t3_18" type="car" route="t3" depart="15" departSpeed="5"/>
    <vehicle id="t5_19" type="car" route="t5" depart="15" departSpeed="5"/>
    <vehicle id="t6_20" type="car" route="t6" depart="16" departSpeed="5"/>
    <vehicle id="SN_21" type="car" route="SN" depart="17" departSpeed="5"/>
    <vehicle id="t2_22" type="car" route="t2" depart="18" departSpeed="5"/>
    <vehicle id="t4_23" type="car" route="t4" depart="18" departSpeed="5"/>
    <vehicle id="t6_24" type="car" route="t6" depart="18" departSpeed="5"/>
    <vehicle id="EWTop_25" type="car" route="EWTop" depart="19" departSpeed="5"/>
    <vehicle id="SN_26" type="car" route="SN" depart="19" departSpeed="5"/>
    <vehicle id="WETop_27" type="car" route="WETop" depart="20" departSpeed="5"/>
    <vehicle id="EWBottom_28" type="car" route="EWBottom" depart="20" departSpeed="5"/>
    <vehicle id="t3_29" type="car" route="t3" depart="20" departSpeed="5"/>
    <vehicle id="t6_30" type="car" route="t6" depart="20" departSpeed="5"/>
    <vehicle id="EWTop_31" type="car" route="EWTop" depart="21" departSpeed="5"/>
    <vehicle id="t2_32" type="car" route="t2" depart="21" departSpeed="5"/>
    <vehicle id="t3_33" type="car" route="t3" depart="21" departSpeed="5"/>
    <vehicle id="t4_34" type="car" route="t4" depart="21" departSpeed="5"/>
    <vehicle id="t5_35" type="car" route="t5" depart="22" departSpeed="5"/>
    <vehicle id="SN_36" type="car" route="SN" depart="24" departSpeed="5"/>
    <vehicle id="t6_37" type="car" route="t6" depart="24" departSpeed="5"/>
    <vehicle id="WETop_38" type="car" route="WETop" depart="25" departSpeed="5"/>
    <vehicle id="EWTop_39" type="car" route="EWTop" depart="25" departSpeed="5"/>
    <vehicle id="WEBottom_40" type="car" route="WEBottom" depart="25" departSpeed="5"/>
    <vehicle id="t4_41" type="car" route="t4" depart="26" departSpeed="5"/>
    <vehicle id="EWTop_42" type="car" route="EWTop" depart="27" departSpeed="5"/>
    <vehicle id="t5_43" type="car" route="t5" depart="27" departSpeed="5"/>
    <vehicle id="EWTop_44" type="car" route="EWTop" depart="28" departSpeed="5"/>
    <vehicle id="SN_45" type="car" route="SN" depart="30" departSpeed="5"/>
    <vehicle id="SN_46" type="car" route="SN" depart="31" departSpeed="5"/>
    <vehicle id="t3_47" type="car" route="t3" depart="31" departSpeed="5"/>
    <vehicle id="t4_48" type="car" route="t4" depart="31" departSpeed="5"/>
    <vehicle id="EWBottom_49" type="car" route="EWBottom" depart="33" departSpeed="5"/>
    <vehicle id="t6_50" type="car" route="t6" depart="33" departSpeed="5"/>
    <vehicle id="t2_51" type="car" route="t2" depart="34" departSpeed="5"/>
    <vehicle id="WEBottom_52" type="car" route="WEBottom" depart="35" departSpeed="5"/>
    <vehicle id="EWBottom_53" type="car" route="EWBottom" depart="36" departSpeed="5"/>
    <vehicle id="t4_54" type="car" route="t4" depart="36" departSpeed="5"/>
    <vehicle id="SN_55" type="car" route="SN" depart="38" departSpeed="5"/>
    <vehicle id="t2_56" type="car" route="t2" depart="38" departSpeed="5"/>
    <vehicle id="t5_57" type="car" route="t5" depart="40" departSpeed="5"/>
    <vehicle id="WETop_58" type="car" route="WETop" depart="42" departSpeed="5"/>
    <vehicle id="NS_59" type="car" route="NS" depart="42" departSpeed="5"/>
    <vehicle id="EWBottom_60" type="car" route="EWBottom" depart="46" departSpeed="5"/>
    <vehicle id="t3_61" type="car" route="t3" depart="47" departSpeed="5"/>
    <vehicle id="t6_62" type="car" route="t6" depart="47" departSpeed="5"/>
    <vehicle id="NS_63" type="car" route="NS" depart="48" departSpeed="5"/>
    <vehicle id="EWTop_64" type="car" route="EWTop" depart="51" departSpeed="5"/>
    <vehicle id="SN_65" type="car" route="SN" depart="54" departSpeed="5"/>
    <vehicle id="WEBottom_66" type="car" route="WEBottom" depart="55" departSpeed="5"/>
    <vehicle id="t5_67" type="car" route="t5" depart="55" departSpeed="5"/>
    <vehicle id="t6_68" type="car" route="t6" depart="55" departSpeed="5"/>
    <vehicle id="NS_69" type="car" route="NS" depart="57" departSpeed="5"/>
    <vehicle id="t2_70" type="car" route="t2" depart="58" departSpeed="5"/>
    <vehicle id="WEBottom_71" type="car" route="WEBottom" depart="59" departSpeed="5"/>
    <vehicle id="WEBottom_72" type="car" route="WEBottom" depart="60" departSpeed="5"/>
    <vehicle id="SN_73" type="car" route="SN" depart="60" departSpeed="5"/>
    <vehicle id="t5_74" type="car" route="t5" depart="60" departSpeed="5"/>
    <vehicle id="WEBottom_75" type="car" route="WEBottom" depart="62" departSpeed="5"/>
    <vehicle id="t2_76" type="car" route="t2" depart="62" departSpeed="5"/>
    <vehicle id="t3_77" type="car" route="t3" depart="63" departSpeed="5"/>
    <vehicle id="NS_78" type="car" route="NS" depart="64" departSpeed="5"/>
    <vehicle id="WETop_79" type="car" route="WETop" depart="65" departSpeed="5"/>
    <vehicle id="WETop_80" type="car" route="WETop" depart="66" departSpeed="5"/>
    <vehicle id="t2_81" type="car" route="t2" depart="66" departSpeed="5"/>
    <vehicle id="SN_82" type="car" route="SN" depart="67" departSpeed="5"/>
    <vehicle id="t6_83" type="car" route="t6" depart="67" departSpeed="5"/>
    <vehicle id="t6_84" type="car" route="t6" depart="68" departSpeed="5"/>
    <vehicle id="EWTop_85" type="car" route="EWTop" depart="70" departSpeed="5"/>
    <vehicle id="WETop_86" type="car" route="WETop" depart="73" departSpeed="5"/>
    <vehicle id="t2_87" type="car" route="t2" depart="73" departSpeed="5"/>
    <vehicle id="WETop_88" type="car" route="WETop" depart="74" departSpeed="5"/>
    <vehicle id="t4_89" type="car" route="t4" depart="75" departSpeed="5"/>
    <vehicle id="t3_90" type="car" route="t3" depart="78" departSpeed="5"/>
    <vehicle id="t6_91" type="car" route="t6" depart="78" departSpeed="5"/>
    <vehicle id="t2_92" type="car" route="t2" depart="79" departSpeed="5"/>
    <vehicle id="WEBottom_93" type="car" route="WEBottom" depart="80" departSpeed="5"/>
    <vehicle id="NS_94" type="car" route="NS" depart="80" departSpeed="5"/>
    <vehicle id="t2_95" type="car" route="t2" depart="81" departSpeed="5"/>
    <vehicle id="t4_96" type="car" route="t4" depart="81" departSpeed="5"/>
    <vehicle id="SN_97" type="car" route="SN" depart="82" departSpeed="5"/>
    <vehicle id="t2_98" type="car" route="t2" depart="82" departSpeed="5"/>
    <vehicle id="EWTop_99" type="car" route="EWTop" depart="83" departSpeed="5"/>
    <vehicle id="EWBottom_100" type="car" route="EWBottom" depart="83" departSpeed="5"/>
    <vehicle id="EWTop_101" type="car" route="EWTop" depart="84" departSpeed="5"/>
    <vehicle id="NS_102" type="car" route="NS" depart="88" departSpeed="5"/>
    <vehicle id="t3_103" type="car" route="t3" depart="88" departSpeed="5"/>
    <vehicle id="t4_104" type="car" route="t4" depart="88" departSpeed="5"/>
    <vehicle id="NS_105" type="car" route="NS" depart="89" departSpeed="5"/>
    <vehicle id="EWTop_106" type="car" route="EWTop" depart="93" departSpeed="5"/>
    <vehicle id="WETop_107" type="car" route="WETop" depart="94" departSpeed="5"/>
    <vehicle id="WEBottom_108" type="car" route="WEBottom" depart="95" departSpeed="5"/>
    <vehicle id="t4_109" type="car" route="t4" depart="95" departSpeed="5"/>
    <vehicle id="WETop_110" type="car" route="WETop" depart="96" departSpeed="5"/>
    <vehicle id="EWBottom_111" type="car" route="EWBottom" depart="96" departSpeed="5"/>
    <vehicle id="WETop_112" type="car" route="WETop" depart="97" departSpeed="5"/>
    <vehicle id="WEBottom_113" type="car" route="WEBottom" depart="97" departSpeed="5"/>
    <vehicle id="EWBottom_114" type="car" route="EWBottom" depart="97" departSpeed="5"/>
    <vehicle id="SN_115" type="car" route="SN" depart="97" departSpeed="5"/>
    <vehicle id="WEBottom_116" type="car" route="WEBottom" depart="98" departSpeed="5"/>
    <vehicle id="WEBottom_117" type="car" route="WEBottom" depart="99" departSpeed="5"/>
    <vehicle id="t3_118" type="car" route="t3" depart="99" departSpeed="5"/>
    <vehicle id="t2_119" type="car" route="t2" depart="102" departSpeed="5"/>
    <vehicle id="t5_120" type="car" route="t5" depart="102" departSpeed="5"/>
    <vehicle id="t4_121" type="car" route="t4" depart="103" departSpeed="5"/>
    <vehicle id="t5_122" type="car" route="t5" depart="103" departSpeed="5"/>
    <vehicle id="WETop_123" type="car" route="WETop" depart="104" departSpeed="5"/>
    <vehicle id="NS_124" type="car" route="NS" depart="106" departSpeed="5"/>
    <vehicle id="t2_125" type="car" route="t2" depart="106" departSpeed="5"/>
    <vehicle id="t2_126" type="car" route="t2" depart="107" departSpeed="5"/>
    <vehicle id="t6_127" type="car" route="t6" depart="107" departSpeed="5"/>
    <vehicle id="t2_128" type="car" route="t2" depart="109" departSpeed="5"/>
    <vehicle id="t5_129" type="car" route="t5" depart="109" departSpeed="5"/>
    <vehicle id="NS_130" type="car" route="NS" depart="110" departSpeed="5"/>
    <vehicle id="t3_131" type="car" route="t3" depart="111" departSpeed="5"/>
    <vehicle id="NS_132" type="car" route="NS" depart="114" departSpeed="5"/>
    <vehicle id="t5_133" type="car" route="t5" depart="114" departSpeed="5"/>
    <vehicle id="NS_134" type="car" route="NS" depart="118" departSpeed="5"/>
    <vehicle id="t6_135" type="car" route="t6" depart="120" departSpeed="5"/>
    <vehicle id="t3_136" type="car" route="t3" depart="121" departSpeed="5"/>
    <vehicle id="t5_137" type="car" route="t5" depart="124" departSpeed="5"/>
    <vehicle id="t2_138" type="car" route="t2" depart="125" departSpeed="5"/>
    <vehicle id="WETop_139" type="car" route="WETop" depart="127" departSpeed="5"/>
    <vehicle id="WEBottom_140" type="car" route="WEBottom" depart="127" departSpeed="5"/>
    <vehicle id="t4_141" type="car" route="t4" depart="127" departSpeed="5"/>
    <vehicle id="SN_142" type="car" route="SN" depart="128" departSpeed="5"/>
    <vehicle id="t5_143" type="car" route="t5" depart="128" departSpeed="5"/>
    <vehicle id="EWTop_144" type="car" route="EWTop" depart="129" departSpeed="5"/>
    <vehicle id="EWBottom_145" type="car" route="EWBottom" depart="129" departSpeed="5"/>
    <vehicle id="SN_146" type="car" route="SN" depart="129" departSpeed="5"/>
    <vehicle id="t2_147" type="car" route="t2" depart="129" departSpeed="5"/>
    <vehicle id="EWTop_148" type="car" route="EWTop" depart="130" departSpeed="5"/>
    <vehicle id="SN_149" type="car" route="SN" depart="130" departSpeed="5"/>
    <vehicle id="t2_150" type="car" route="t2" depart="131" departSpeed="5"/>
    <vehicle id="WETop_151" type="car" route="WETop" depart="133" departSpeed="5"/>
    <vehicle id="EWBottom_152" type="car" route="EWBottom" depart="133" departSpeed="5"/>
    <vehicle id="t5_153" type="car" route="t5" depart="133" departSpeed="5"/>
    <vehicle id="EWBottom_154" type="car" route="EWBottom" depart="135" departSpeed="5"/>
    <vehicle id="t4_155" type="car" route="t4" depart="135" departSpeed="5"/>
    <vehicle id="EWBottom_156" type="car" route="EWBottom" depart="137" departSpeed="5"/>
    <vehicle id="t2_157" type="car" route="t2" depart="137" departSpeed="5"/>
    <vehicle id="t4_158" type="car" route="t4" depart="140" departSpeed="5"/>
    <vehicle id="EWTop_159" type="car" route="EWTop" depart="141" departSpeed="5"/>
    <vehicle id="t2_160" type="car" route="t2" depart="141" departSpeed="5"/>
    <vehicle id="t5_161" type="car" route="t5" depart="141" departSpeed="5"/>
    <vehicle id="t3_162" type="car" route="t3" depart="142" departSpeed="5"/>
    <vehicle id="t4_163" type="car" route="t4" depart="142" departSpeed="5"/>
    <vehicle id="WETop_164" type="car" route="WETop" depart="143" departSpeed="5"/>
    <vehicle id="SN_165" type="car" route="SN" depart="143" departSpeed="5"/>
    <vehicle id="t6_166" type="car" route="t6" depart="143" departSpeed="5"/>
    <vehicle id="t6_167" type="car" route="t6" depart="144" departSpeed="5"/>
    <vehicle id="EWTop_168" type="car" route="EWTop" depart="145" departSpeed="5"/>
    <vehicle id="WEBottom_169" type="car" route="WEBottom" depart="146" departSpeed="5"/>
    <vehicle id="NS_170" type="car" route="NS" depart="146" departSpeed="5"/>
    <vehicle id="t3_171" type="car" route="t3" depart="146" departSpeed="5"/>
    <vehicle id="t5_172" type="car" route="t5" depart="146" departSpeed="5"/>
    <vehicle id="t4_173" type="car" route="t4" depart="147" departSpeed="5"/>
    <vehicle id="EWTop_174" type="car" route="EWTop" depart="148" departSpeed="5"/>
    <vehicle id="NS_175" type="car" route="NS" depart="149" departSpeed="5"/>
    <vehicle id="t4_176" type="car" route="t4" depart="149" departSpeed="5"/>
    <vehicle id="t6_177" type="car" route="t6" depart="150" departSpeed="5"/>
    <vehicle id="t4_178" type="car" route="t4" depart="151" departSpeed="5"/>
    <vehicle id="t2_179" type="car" route="t2" depart="154" departSpeed="5"/>
    <vehicle id="SN_180" type="car" route="SN" depart="156" departSpeed="5"/>
    <vehicle id="t6_181" type="car" route="t6" depart="158" departSpeed="5"/>
    <vehicle id="EWTop_182" type="car" route="EWTop" depart="161" departSpeed="5"/>
    <vehicle id="EWTop_183" type="car" route="EWTop" depart="162" departSpeed="5"/>
    <vehicle id="EWBottom_184" type="car" route="EWBottom" depart="162" departSpeed="5"/>
    <vehicle id="t3_185" type="car" route="t3" depart="164" departSpeed="5"/>
    <vehicle id="WEBottom_186" type="car" route="WEBottom" depart="165" departSpeed="5"/>
    <vehicle id="EWBottom_187" type="car" route="EWBottom" depart="165" departSpeed="5"/>
    <vehicle id="t2_188" type="car" route="t2" depart="165" departSpeed="5"/>
    <vehicle id="NS_189" type="car" route="NS" depart="167" departSpeed="5"/>
    <vehicle id="WEBottom_190" type="car" route="WEBottom" depart="168" departSpeed="5"/>
    <vehicle id="EWBottom_191" type="car" route="EWBottom" depart="168" departSpeed="5"/>
    <vehicle id="SN_192" type="car" route="SN" depart="169" departSpeed="5"/>
    <vehicle id="EWTop_193" type="car" route="EWTop" depart="170" departSpeed="5"/>
    <vehicle id="SN_194" type="car" route="SN" depart="171" departSpeed="5"/>
    <vehicle id="EWTop_195" type="car" route="EWTop" depart="173" departSpeed="5"/>
    <vehicle id="EWBottom_196" type="car" route="EWBottom" depart="173" departSpeed="5"/>
    <vehicle id="t4_197" type="car" route="t4" depart="173" departSpeed="5"/>
    <vehicle id="EWBottom_198" type="car" route="EWBottom" depart="174" departSpeed="5"/>
    <vehicle id="SN_199" type="car" route="SN" depart="174" departSpeed="5"/>
    <vehicle id="t2_200" type="car" route="t2" depart="174" departSpeed="5"/>
    <vehicle id="t4_201" type="car" route="t4" depart="174" departSpeed="5"/>
    <vehicle id="t4_202" type="car" route="t4" depart="175" departSpeed="5"/>
    <vehicle id="EWTop_203" type="car" route="EWTop" depart="177" departSpeed="5"/>
    <vehicle id="EWBottom_204" type="car" route="EWBottom" depart="177" departSpeed="5"/>
    <vehicle id="WETop_205" type="car" route="WETop" depart="181" departSpeed="5"/>
    <vehicle id="SN_206" type="car" route="SN" depart="181" departSpeed="5"/>
    <vehicle id="EWBottom_207" type="car" route="EWBottom" depart="182" departSpeed="5"/>
    <vehicle id="NS_208" type="car" route="NS" depart="182" departSpeed="5"/>
    <vehicle id="NS_209" type="car" route="NS" depart="186" departSpeed="5"/>
    <vehicle id="t2_210" type="car" route="t2" depart="186" departSpeed="5"/>
    <vehicle id="t3_211" type="car" route="t3" depart="186" departSpeed="5"/>
    <vehicle id="t5_212" type="car" route="t5" depart="186" departSpeed="5"/>
    <vehicle id="WETop_213" type="car" route="WETop" depart="187" departSpeed="5"/>
    <vehicle id="EWTop_214" type="car" route="EWTop" depart="188" departSpeed="5"/>
    <vehicle id="t3_215" type="car" route="t3" depart="188" departSpeed="5"/>
    <vehicle id="WETop_216" type="car" route="WETop" depart="189" departSpeed="5"/>
    <vehicle id="WEBottom_217" type="car" route="WEBottom" depart="189" departSpeed="5"/>
    <vehicle id="EWTop_218" type="car" route="EWTop" depart="190" departSpeed="5"/>
    <vehicle id="WEBottom_219" type="car" route="WEBottom" depart="190" departSpeed="5"/>
    <vehicle id="t6_220" type="car" route="t6" depart="191" departSpeed="5"/>
    <vehicle id="t4_221" type="car" route="t4" depart="194" departSpeed="5"/>
    <vehicle id="t6_222" type="car" route="t6" depart="194" departSpeed="5"/>
    <vehicle id="EWTop_223" type="car" route="EWTop" depart="195" departSpeed="5"/>
    <vehicle id="WEBottom_224" type="car" route="WEBottom" depart="195" departSpeed="5"/>
    <vehicle id="NS_225" type="car" route="NS" depart="195" departSpeed="5"/>
    <vehicle id="WETop_226" type="car" route="WETop" depart="197" departSpeed="5"/>
    <vehicle id="EWTop_227" type="car" route="EWTop" depart="197" departSpeed="5"/>
    <vehicle id="WETop_228" type="car" route="WETop" depart="198" departSpeed="5"/>
    <vehicle id="t4_229" type="car" route="t4" depart="199" departSpeed="5"/>
    <vehicle id="WEBottom_230" type="car" route="WEBottom" depart="200" departSpeed="5"/>
    <vehicle id="t4_231" type="car" route="t4" depart="200" departSpeed="5"/>
    <vehicle id="NS_232" type="car" route="NS" depart="201" departSpeed="5"/>
    <vehicle id="t5_233" type="car" route="t5" depart="201" departSpeed="5"/>
    <vehicle id="t6_234" type="car" route="t6" depart="201" departSpeed="5"/>
    <vehicle id="t2_235" type="car" route="t2" depart="202" departSpeed="5"/>
    <vehicle id="t5_236" type="car" route="t5" depart="203" departSpeed="5"/>
    <vehicle id="WETop_237" type="car" route="WETop" depart="205" departSpeed="5"/>
    <vehicle id="WEBottom_238" type="car" route="WEBottom" depart="205" departSpeed="5"/>
    <vehicle id="EWTop_239" type="car" route="EWTop" depart="206" departSpeed="5"/>
    <vehicle id="SN_240" type="car" route="SN" depart="206" departSpeed="5"/>
    <vehicle id="NS_241" type="car" route="NS" depart="207" departSpeed="5"/>
    <vehicle id="t4_242" type="car" route="t4" depart="207" departSpeed="5"/>
    <vehicle id="t5_243" type="car" route="t5" depart="209" departSpeed="5"/>
    <vehicle id="EWBottom_244" type="car" route="EWBottom" depart="210" departSpeed="5"/>
    <vehicle id="SN_245" type="car" route="SN" depart="210" departSpeed="5"/>
    <vehicle id="t3_246" type="car" route="t3" depart="210" departSpeed="5"/>
    <vehicle id="t6_247" type="car" route="t6" depart="210" departSpeed="5"/>
    <vehicle id="SN_248" type="car" route="SN" depart="211" departSpeed="5"/>
    <vehicle id="t5_249" type="car" route="t5" depart="211" departSpeed="5"/>
    <vehicle id="EWTop_250" type="car" route="EWTop" depart="213" departSpeed="5"/>
    <vehicle id="WEBottom_251" type="car" route="WEBottom" depart="215" departSpeed="5"/>
    <vehicle id="EWBottom_252" type="car" route="EWBottom" depart="216" departSpeed="5"/>
    <vehicle id="t5_253" type="car" route="t5" depart="217" departSpeed="5"/>
    <vehicle id="t2_254" type="car" route="t2" depart="219" departSpeed="5"/>
    <vehicle id="t3_255" type="car" route="t3" depart="220" departSpeed="5"/>
    <vehicle id="WETop_256" type="car" route="WETop" depart="222" departSpeed="5"/>
    <vehicle id="EWBottom_257" type="car" route="EWBottom" depart="222" departSpeed="5"/>
    <vehicle id="t3_258" type="car" route="t3" depart="222" departSpeed="5"/>
    <vehicle id="t5_259" type="car" route="t5" depart="222" departSpeed="5"/>
    <vehicle id="WETop_260" type="car" route="WETop" depart="223" departSpeed="5"/>
    <vehicle id="t2_261" type="car" route="t2" depart="224" departSpeed="5"/>
    <vehicle id="EWTop_262" type="car" route="EWTop" depart="226" departSpeed="5"/>
    <vehicle id="t5_263" type="car" route="t5" depart="226" departSpeed="5"/>
    <vehicle id="SN_264" type="car" route="SN" depart="229" departSpeed="5"/>
    <vehicle id="t2_265" type="car" route="t2" depart="229" departSpeed="5"/>
    <vehicle id="WEBottom_266" type="car" route="WEBottom" depart="231" departSpeed="5"/>
    <vehicle id="t3_267" type="car" route="t3" depart="231" departSpeed="5"/>
    <vehicle id="t6_268" type="car" route="t6" depart="232" departSpeed="5"/>
    <vehicle id="NS_269" type="car" route="NS" depart="233" departSpeed="5"/>
    <vehicle id="t5_270" type="car" route="t5" depart="233" departSpeed="5"/>
    <vehicle id="t6_271" type="car" route="t6" depart="233" departSpeed="5"/>
    <vehicle id="EWTop_272" type="car" route="EWTop" depart="236" departSpeed="5"/>
    <vehicle id="EWBottom_273" type="car" route="EWBottom" depart="236" departSpeed="5"/>
    <vehicle id="t5_274" type="car" route="t5" depart="236" departSpeed="5"/>
    <vehicle id="NS_275" type="car" route="NS" depart="237" departSpeed="5"/>
    <vehicle id="t2_276" type="car" route="t2" depart="237" departSpeed="5"/>
    <vehicle id="t5_277" type="car" route="t5" depart="239" departSpeed="5"/>
    <vehicle id="NS_278" type="car" route="NS" depart="241" departSpeed="5"/>
    <vehicle id="SN_279" type="car" route="SN" depart="241" departSpeed="5"/>
    <vehicle id="t2_280" type="car" route="t2" depart="241" departSpeed="5"/>
    <vehicle id="EWTop_281" type="car" route="EWTop" depart="242" departSpeed="5"/>
    <vehicle id="EWBottom_282" type="car" route="EWBottom" depart="242" departSpeed="5"/>
    <vehicle id="SN_283" type="car" route="SN" depart="242" departSpeed="5"/>
    <vehicle id="t2_284" type="car" route="t2" depart="243" departSpeed="5"/>
    <vehicle id="EWBottom_285" type="car" route="EWBottom" depart="244" departSpeed="5"/>
    <vehicle id="t5_286" type="car" route="t5" depart="244" departSpeed="5"/>
    <vehicle id="t3_287" type="car" route="t3" depart="245" departSpeed="5"/>
    <vehicle id="t6_288" type="car" route="t6" depart="246" departSpeed="5"/>
    <vehicle id="EWBottom_289" type="car" route="EWBottom" depart="248" departSpeed="5"/>
    <vehicle id="t5_290" type="car" route="t5" depart="248" departSpeed="5"/>
    <vehicle id="t6_291" type="car" route="t6" depart="248" departSpeed="5"/>
    <vehicle id="SN_292" type="car" route="SN" depart="249" departSpeed="5"/>
    <vehicle id="t2_293" type="car" route="t2" depart="249" departSpeed="5"/>
    <vehicle id="t5_294" type="car" route="t5" depart="251" departSpeed="5"/>
    <vehicle id="t6_295" type="car" route="t6" depart="251" departSpeed="5"/>
    <vehicle id="t2_296" type="car" route="t2" depart="252" departSpeed="5"/>
    <vehicle id="t5_297" type="car" route="t5" depart="252" departSpeed="5"/>
    <vehicle id="SN_298" type="car" route="SN" depart="253" departSpeed="5"/>
    <vehicle id="t2_299" type="car" route="t2" depart="254" departSpeed="5"/>
    <vehicle id="t3_300" type="car" route="t3" depart="254" departSpeed="5"/>
    <vehicle id="t3_301" type="car" route="t3" depart="255" departSpeed="5"/>
    <vehicle id="SN_302" type="car" route="SN" depart="256" departSpeed="5"/>
    <vehicle id="t6_303" type="car" route="t6" depart="256" departSpeed="5"/>
    <vehicle id="WEBottom_304" type="car" route="WEBottom" depart="257" departSpeed="5"/>
    <vehicle id="SN_305" type="car" route="SN" depart="258" departSpeed="5"/>
    <vehicle id="WETop_306" type="car" route="WETop" depart="259" departSpeed="5"/>
    <vehicle id="t6_307" type="car" route="t6" depart="259" departSpeed="5"/>
    <vehicle id="EWBottom_308" type="car" route="EWBottom" depart="260" departSpeed="5"/>
    <vehicle id="NS_309" type="car" route="NS" depart="260" departSpeed="5"/>
    <vehicle id="t6_310" type="car" route="t6" depart="260" departSpeed="5"/>
    <vehicle id="WEBottom_311" type="car" route="WEBottom" depart="262" departSpeed="5"/>
    <vehicle id="NS_312" type="car" route="NS" depart="265" departSpeed="5"/>
    <vehicle id="t3_313" type="car" route="t3" depart="265" departSpeed="5"/>
    <vehicle id="t4_314" type="car" route="t4" depart="265" departSpeed="5"/>
    <vehicle id="EWBottom_315" type="car" route="EWBottom" depart="266" departSpeed="5"/>
    <vehicle id="EWBottom_316" type="car" route="EWBottom" depart="267" departSpeed="5"/>
    <vehicle id="t3_317" type="car" route="t3" depart="268" departSpeed="5"/>
    <vehicle id="t6_318" type="car" route="t6" depart="268" departSpeed="5"/>
    <vehicle id="t2_319" type="car" route="t2" depart="269" departSpeed="5"/>
    <vehicle id="WETop_320" type="car" route="WETop" depart="270" departSpeed="5"/>
    <vehicle id="SN_321" type="car" route="SN" depart="272" departSpeed="5"/>
    <vehicle id="NS_322" type="car" route="NS" depart="273" departSpeed="5"/>
    <vehicle id="t3_323" type="car" route="t3" depart="273" departSpeed="5"/>
    <vehicle id="t5_324" type="car" route="t5" depart="273" departSpeed="5"/>
    <vehicle id="t3_325" type="car" route="t3" depart="274" departSpeed="5"/>
    <vehicle id="t6_326" type="car" route="t6" depart="274" departSpeed="5"/>
    <vehicle id="t3_327" type="car" route="t3" depart="276" departSpeed="5"/>
    <vehicle id="SN_328" type="car" route="SN" depart="277" departSpeed="5"/>
    <vehicle id="t6_329" type="car" route="t6" depart="279" departSpeed="5"/>
    <vehicle id="t2_330" type="car" route="t2" depart="280" departSpeed="5"/>
    <vehicle id="EWBottom_331" type="car" route="EWBottom" depart="281" departSpeed="5"/>
    <vehicle id="t2_332" type="car" route="t2" depart="281" departSpeed="5"/>
    <vehicle id="NS_333" type="car" route="NS" depart="282" departSpeed="5"/>
    <vehicle id="t2_334" type="car" route="t2" depart="283" departSpeed="5"/>
    <vehicle id="WEBottom_335" type="car" route="WEBottom" depart="286" departSpeed="5"/>
    <vehicle id="t2_336" type="car" route="t2" depart="286" departSpeed="5"/>
    <vehicle id="WETop_337" type="car" route="WETop" depart="287" departSpeed="5"/>
    <vehicle id="t4_338" type="car" route="t4" depart="288" departSpeed="5"/>
    <vehicle id="EWTop_339" type="car" route="EWTop" depart="289" departSpeed="5"/>
    <vehicle id="EWTop_340" type="car" route="EWTop" depart="290" departSpeed="5"/>
    <vehicle id="t2_341" type="car" route="t2" depart="290" departSpeed="5"/>
    <vehicle id="t4_342" type="car" route="t4" depart="290" departSpeed="5"/>
    <vehicle id="EWTop_343" type="car" route="EWTop" depart="291" departSpeed="5"/>
    <vehicle id="WETop_344" type="car" route="WETop" depart="292" departSpeed="5"/>
    <vehicle id="NS_345" type="car" route="NS" depart="292" departSpeed="5"/>
    <vehicle id="t4_346" type="car" route="t4" depart="293" departSpeed="5"/>
    <vehicle id="t6_347" type="car" route="t6" depart="293" departSpeed="5"/>
    <vehicle id="EWBottom_348" type="car" route="EWBottom" depart="295" departSpeed="5"/>
    <vehicle id="SN_349" type="car" route="SN" depart="295" departSpeed="5"/>
    <vehicle id="EWTop_350" type="car" route="EWTop" depart="297" departSpeed="5"/>
    <vehicle id="WETop_351" type="car" route="WETop" depart="298" departSpeed="5"/>
    <vehicle id="t2_352" type="car" route="t2" depart="298" departSpeed="5"/>
    <vehicle id="NS_353" type="car" route="NS" depart="299" departSpeed="5"/>
    <vehicle id="EWBottom_354" type="car" route="EWBottom" depart="300" departSpeed="5"/>
    <vehicle id="t3_355" type="car" route="t3" depart="300" departSpeed="5"/>
    <vehicle id="t4_356" type="car" route="t4" depart="300" departSpeed="5"/>
    <vehicle id="EWTop_357" type="car" route="EWTop" depart="302" departSpeed="5"/>
    <vehicle id="SN_358" type="car" route="SN" depart="302" departSpeed="5"/>
    <vehicle id="t3_359" type="car" route="t3" depart="303" departSpeed="5"/>
    <vehicle id="t3_360" type="car" route="t3" depart="305" departSpeed="5"/>