<routes>
                               <vType id="car" accel="2.0" decel="8.5" sigma="0.7" length="5" minGap="3" maxSpeed="30" guiShape="passenger"/>

                               <route id="WETop" edges="5i 1i 2o" />
                               <route id="EWTop" edges="2i 1o 5o" />
                               <route id="NS" edges="4i 3o 8i" />
                               <route id="SN" edges="8o 3i 4o" />
                               <route id="WEBottom" edges="7o 11o" />
                               <route id="EWBottom" edges="11i 7i" />

                               <route id="t2" edges="8o 7i" />
                               <route id="t3" edges="4i 1o 6i" />
                               <route id="t4" edges="7o 3i 2o" />
                               <route id="t5" edges="6o 1i 4o" />
                               <route id="t6" edges="5i 1i 3o 11o" />
                               
    <vehicle id="WEBottom_0" type="car" route="WEBottom" depart="1" departSpeed="15"/>
    <vehicle id="WEBottom_1" type="car" route="WEBottom" depart="2" departSpeed="15"/>
    <vehicle id="t2_2" type="car" route="t2" depart="3" departSpeed="15"/>
    <vehicle id="t4_3" type="car" route="t4" depart="3" departSpeed="15"/>
    <vehicle id="WEBottom_4" type="car" route="WEBottom" depart="4" departSpeed="15"/>
    <vehicle id="t5_5" type="car" route="t5" depart="6" departSpeed="15"/>
    <vehicle id="WEBottom_6" type="car" route="WEBottom" depart="8" departSpeed="15"/>
    <vehicle id="t5_7" type="car" route="t5" depart="11" departSpeed="15"/>
    <vehicle id="t3_8" type="car" route="t3" depart="13" departSpeed="15"/>
    <vehicle id="SN_9" type="car" route="SN" depart="14" departSpeed="15"/>
    <vehicle id="t4_10" type="car" route="t4" depart="14" departSpeed="15"/>
    <vehicle id="t5_11" type="car" route="t5" depart="14" departSpeed="15"/>
    <vehicle id="t3_12" type="car" route="t3" depart="16" departSpeed="15"/>
    <vehicle id="EWBottom_13" type="car" route="EWBottom" depart="21" departSpeed="15"/>
    <vehicle id="t2_14" type="car" route="t2" depart="27" departSpeed="15"/>
    <vehicle id="EWTop_15" type="car" route="EWTop" depart="29" departSpeed="15"/>
    <vehicle id="WETop_16" type="car" route="WETop" depart="30" departSpeed="15"/>
    <vehicle id="EWTop_17" type="car" route="EWTop" depart="31" departSpeed="15"/>
    <vehicle id="t3_18" type="car" route="t3" depart="31" departSpeed="15"/>
    <vehicle id="t4_19" type="car" route="t4" depart="32" departSpeed="15"/>
    <vehicle id="t6_20" type="car" route="t6" depart="36" departSpeed="15"/>
    <vehicle id="t5_21" type="car" route="t5" depart="37" departSpeed="15"/>
    <vehicle id="NS_22" type="car" route="NS" depart="38" departSpeed="15"/>
    <vehicle id="WETop_23" type="car" route="WETop" depart="39" departSpeed="15"/>
    <vehicle id="NS_24" type="car" route="NS" depart="39" departSpeed="15"/>
    <vehicle id="EWBottom_25" type="car" route="EWBottom" depart="43" departSpeed="15"/>
    <vehicle id="t3_26" type="car" route="t3" depart="43" departSpeed="15"/>
    <vehicle id="t5_27" type="car" route="t5" depart="43" departSpeed="15"/>
    <vehicle id="WEBottom_28" type="car" route="WEBottom" depart="44" departSpeed="15"/>
    <vehicle id="WETop_29" type="car" route="WETop" depart="45" departSpeed="15"/>
    <vehicle id="EWTop_30" type="car" route="EWTop" depart="46" departSpeed="15"/>
    <vehicle id="EWTop_31" type="car" route="EWTop" depart="47" departSpeed="15"/>
    <vehicle id="EWBottom_32" type="car" route="EWBottom" depart="48" departSpeed="15"/>
    <vehicle id="t6_33" type="car" route="t6" depart="48" departSpeed="15"/>
    <vehicle id="t4_34" type="car" route="t4" depart="50" departSpeed="15"/>
    <vehicle id="NS_35" type="car" route="NS" depart="51" departSpeed="15"/>
    <vehicle id="t4_36" type="car" route="t4" depart="51" departSpeed="15"/>
    <vehicle id="t5_37" type="car" route="t5" depart="51" departSpeed="15"/>
    <vehicle id="t6_38" type="car" route="t6" depart="51" departSpeed="15"/>
    <vehicle id="t6_39" type="car" route="t6" depart="53" departSpeed="15"/>
    <vehicle id="t4_40" type="car" route="t4" depart="56" departSpeed="15"/>
    <vehicle id="EWBottom_41" type="car" route="EWBottom" depart="58" departSpeed="15"/>
    <vehicle id="EWTop_42" type="car" route="EWTop" depart="59" departSpeed="15"/>
    <vehicle id="EWBottom_43" type="car" route="EWBottom" depart="60" departSpeed="15"/>
    <vehicle id="NS_44" type="car" route="NS" depart="64" departSpeed="15"/>
    <vehicle id="t3_45" type="car" route="t3" depart="64" departSpeed="15"/>
    <vehicle id="SN_46" type="car" route="SN" depart="65" departSpeed="15"/>
    <vehicle id="t2_47" type="car" route="t2" depart="66" departSpeed="15"/>
    <vehicle id="WEBottom_48" type="car" route="WEBottom" depart="70" departSpeed="15"/>
    <vehicle id="t2_49" type="car" route="t2" depart="70" departSpeed="15"/>
    <vehicle id="t5_50" type="car" route="t5" depart="71" departSpeed="15"/>
    <vehicle id="WEBottom_51" type="car" route="WEBottom" depart="74" departSpeed="15"/>
    <vehicle id="NS_52" type="car" route="NS" depart="77" departSpeed="15"/>
    <vehicle id="t5_53" type="car" route="t5" depart="77" departSpeed="15"/>
    <vehicle id="WEBottom_54" type="car" route="WEBottom" depart="78" departSpeed="15"/>
    <vehicle id="t3_55" type="car" route="t3" depart="78" departSpeed="15"/>
    <vehicle id="t5_56" type="car" route="t5" depart="78" departSpeed="15"/>
    <vehicle id="WEBottom_57" type="car" route="WEBottom" depart="80" departSpeed="15"/>
    <vehicle id="t4_58" type="car" route="t4" depart="80" departSpeed="15"/>
    <vehicle id="SN_59" type="car" route="SN" depart="81" departSpeed="15"/>
    <vehicle id="t5_60" type="car" route="t5" depart="84" departSpeed="15"/>
    <vehicle id="t2_61" type="car" route="t2" depart="85" departSpeed="15"/>
    <vehicle id="WEBottom_62" type="car" route="WEBottom" depart="87" departSpeed="15"/>
    <vehicle id="SN_63" type="car" route="SN" depart="87" departSpeed="15"/>
    <vehicle id="t3_64" type="car" route="t3" depart="88" departSpeed="15"/>
    <vehicle id="EWTop_65" type="car" route="EWTop" depart="90" departSpeed="15"/>
    <vehicle id="t2_66" type="car" route="t2" depart="90" departSpeed="15"/>
    <vehicle id="EWBottom_67" type="car" route="EWBottom" depart="91" departSpeed="15"/>
    <vehicle id="SN_68" type="car" route="SN" depart="92" departSpeed="15"/>
    <vehicle id="t2_69" type="car" route="t2" depart="94" departSpeed="15"/>
    <vehicle id="t3_70" type="car" route="t3" depart="94" departSpeed="15"/>
    <vehicle id="NS_71" type="car" route="NS" depart="99" departSpeed="15"/>
    <vehicle id="t4_72" type="car" route="t4" depart="99" departSpeed="15"/>
    <vehicle id="WETop_73" type="car" route="WETop" depart="101" departSpeed="15"/>
    <vehicle id="NS_74" type="car" route="NS" depart="101" departSpeed="15"/>
    <vehicle id="SN_75" type="car" route="SN" depart="101" departSpeed="15"/>
    <vehicle id="t2_76" type="car" route="t2" depart="102" departSpeed="15"/>
    <vehicle id="EWBottom_77" type="car" route="EWBottom" depart="105" departSpeed="15"/>
    <vehicle id="t5_78" type="car" route="t5" depart="105" departSpeed="15"/>
    <vehicle id="t4_79" type="car" route="t4" depart="107" departSpeed="15"/>
    <vehicle id="WEBottom_80" type="car" route="WEBottom" depart="109" departSpeed="15"/>
    <vehicle id="SN_81" type="car" route="SN" depart="110" departSpeed="15"/>
    <vehicle id="t3_82" type="car" route="t3" depart="110" departSpeed="15"/>
    <vehicle id="t5_83" type="car" route="t5" depart="110" departSpeed="15"/>
    <vehicle id="t5_84" type="car" route="t5" depart="112" departSpeed="15"/>
    <vehicle id="EWTop_85" type="car" route="EWTop" depart="113" departSpeed="15"/>
    <vehicle id="WEBottom_86" type="car" route="WEBottom" depart="113" departSpeed="15"/>
    <vehicle id="NS_87" type="car" route="NS" depart="113" departSpeed="15"/>
    <vehicle id="t3_88" type="car" route="t3" depart="117" departSpeed="15"/>
    <vehicle id="t2_89" type="car" route="t2" depart="119" departSpeed="15"/>
    <vehicle id="EWBottom_90" type="car" route="EWBottom" depart="120" departSpeed="15"/>
    <vehicle id="SN_91" type="car" route="SN" depart="120" departSpeed="15"/>
    <vehicle id="t6_92" type="car" route="t6" depart="126" departSpeed="15"/>
    <vehicle id="WETop_93" type="car" route="WETop" depart="127" departSpeed="15"/>
    <vehicle id="SN_94" type="car" route="SN" depart="129" departSpeed="15"/>
    <vehicle id="WETop_95" type="car" route="WETop" depart="131" departSpeed="15"/>
    <vehicle id="NS_96" type="car" route="NS" depart="131" departSpeed="15"/>
    <vehicle id="t4_97" type="car" route="t4" depart="132" departSpeed="15"/>
    <vehicle id="t5_98" type="car" route="t5" depart="132" departSpeed="15"/>
    <vehicle id="t3_99" type="car" route="t3" depart="133" departSpeed="15"/>
    <vehicle id="t2_100" type="car" route="t2" depart="136" departSpeed="15"/>
    <vehicle id="WETop_101" type="car" route="WETop" depart="140" departSpeed="15"/>
    <vehicle id="WEBottom_102" type="car" route="WEBottom" depart="142" departSpeed="15"/>
    <vehicle id="NS_103" type="car" route="NS" depart="150" departSpeed="15"/>
    <vehicle id="SN_104" type="car" route="SN" depart="158" departSpeed="15"/>
    <vehicle id="SN_105" type="car" route="SN" depart="159" departSpeed="15"/>
    <vehicle id="SN_106" type="car" route="SN" depart="160" departSpeed="15"/>
    <vehicle id="WETop_107" type="car" route="WETop" depart="162" departSpeed="15"/>
    <vehicle id="SN_108" type="car" route="SN" depart="164" departSpeed="15"/>
    <vehicle id="t6_109" type="car" route="t6" depart="164" departSpeed="15"/>
    <vehicle id="t5_110" type="car" route="t5" depart="169" departSpeed="15"/>
    <vehicle id="t5_111" type="car" route="t5" depart="170" departSpeed="15"/>
    <vehicle id="NS_112" type="car" route="NS" depart="172" departSpeed="15"/>
    <vehicle id="WETop_113" type="car" route="WETop" depart="174" departSpeed="15"/>
    <vehicle id="WEBottom_114" type="car" route="WEBottom" depart="176" departSpeed="15"/>
    <vehicle id="SN_115" type="car" route="SN" depart="176" departSpeed="15"/>
    <vehicle id="t2_116" type="car" route="t2" depart="180" departSpeed="15"/>
    <vehicle id="t2_117" type="car" route="t2" depart="183" departSpeed="15"/>
    <vehicle id="WEBottom_118" type="car" route="WEBottom" depart="184" departSpeed="15"/>
    <vehicle id="t2_119" type="car" route="t2" depart="186" departSpeed="15"/>
    <vehicle id="WEBottom_120" type="car" route="WEBottom" depart="190" departSpeed="15"/>
    <vehicle id="t3_121" type="car" route="t3" depart="190" departSpeed="15"/>
    <vehicle id="WEBottom_122" type="car" route="WEBottom" depart="191" departSpeed="15"/>
    <vehicle id="t3_123" type="car" route="t3" depart="192" departSpeed="15"/>
    <vehicle id="EWBottom_124" type="car" route="EWBottom" depart="194" departSpeed="15"/>
    <vehicle id="EWTop_125" type="car" route="EWTop" depart="196" departSpeed="15"/>
    <vehicle id="NS_126" type="car" route="NS" depart="199" departSpeed="15"/>
    <vehicle id="t2_127" type="car" route="t2" depart="200" departSpeed="15"/>
    <vehicle id="NS_128" type="car" route="NS" depart="202" departSpeed="15"/>
    <vehicle id="NS_129" type="car" route="NS" depart="205" departSpeed="15"/>
    <vehicle id="EWTop_130" type="car" route="EWTop" depart="206" departSpeed="15"/>
    <vehicle id="NS_131" type="car" route="NS" depart="206" departSpeed="15"/>
    <vehicle id="t4_132" type="car" route="t4" depart="206" departSpeed="15"/>
    <vehicle id="EWTop_133" type="car" route="EWTop" depart="209" departSpeed="15"/>
    <vehicle id="NS_134" type="car" route="NS" depart="210" departSpeed="15"/>
    <vehicle id="t6_135" type="car" route="t6" depart="213" departSpeed="15"/>
    <vehicle id="t5_136" type="car" route="t5" depart="215" departSpeed="15"/>
    <vehicle id="WEBottom_137" type="car" route="WEBottom" depart="217" departSpeed="15"/>
    <vehicle id="WETop_138" type="car" route="WETop" depart="220" departSpeed="15"/>
    <vehicle id="EWBottom_139" type="car" route="EWBottom" depart="223" departSpeed="15"/>
    <vehicle id="EWTop_140" type="car" route="EWTop" depart="227" departSpeed="15"/>
    <vehicle id="t5_141" type="car" route="t5" depart="228" departSpeed="15"/>
    <vehicle id="t6_142" type="car" route="t6" depart="230" departSpeed="15"/>
    <vehicle id="t4_143" type="car" route="t4" depart="231" departSpeed="15"/>
    <vehicle id="t5_144" type="car" route="t5" depart="233" departSpeed="15"/>
    <vehicle id="SN_145" type="car" route="SN" depart="234" departSpeed="15"/>
    <vehicle id="t6_146" type="car" route="t6" depart="235" departSpeed="15"/>
    <vehicle id="t6_147" type="car" route="t6" depart="236" departSpeed="15"/>
    <vehicle id="SN_148" type="car" route="SN" depart="242" departSpeed="15"/>
    <vehicle id="t5_149" type="car" route="t5" depart="242" departSpeed="15"/>
    <vehicle id="EWBottom_150" type="car" route="EWBottom" depart="243" departSpeed="15"/>
    <vehicle id="t6_151" type="car" route="t6" depart="244" departSpeed="15"/>
    <vehicle id="NS_152" type="car" route="NS" depart="248" departSpeed="15"/>
    <vehicle id="WETop_153" type="car" route="WETop" depart="250" departSpeed="15"/>
    <vehicle id="WETop_154" type="car" route="WETop" depart="251" departSpeed="15"/>
    <vehicle id="EWTop_155" type="car" route="EWTop" depart="252" departSpeed="15"/>
    <vehicle id="EWTop_156" type="car" route="EWTop" depart="253" departSpeed="15"/>
    <vehicle id="t2_157" type="car" route="t2" depart="257" departSpeed="15"/>
    <vehicle id="t3_158" type="car" route="t3" depart="258" departSpeed="15"/>
    <vehicle id="EWBottom_159" type="car" route="EWBottom" depart="264" departSpeed="15"/>
    <vehicle id="t3_160" type="car" route="t3" depart="264" departSpeed="15"/>
    <vehicle id="SN_161" type="car" route="SN" depart="266" departSpeed="15"/>
    <vehicle id="NS_162" type="car" route="NS" depart="268" departSpeed="15"/>
    <vehicle id="EWBottom_163" type="car" route="EWBottom" depart="269" departSpeed="15"/>
    <vehicle id="WETop_164" type="car" route="WETop" depart="270" departSpeed="15"/>
    <vehicle id="WEBottom_165" type="car" route="WEBottom" depart="272" departSpeed="15"/>
    <vehicle id="EWBottom_166" type="car" route="EWBottom" depart="274" departSpeed="15"/>
    <vehicle id="EWTop_167" type="car" route="EWTop" depart="276" departSpeed="15"/>
    <vehicle id="t6_168" type="car" route="t6" depart="276" departSpeed="15"/>
    <vehicle id="EWTop_169" type="car" route="EWTop" depart="277" departSpeed="15"/>
    <vehicle id="t6_170" type="car" route="t6" depart="277" departSpeed="15"/>
    <vehicle id="EWBottom_171" type="car" route="EWBottom" depart="280" departSpeed="15"/>
    <vehicle id="t4_172" type="car" route="t4" depart="283" departSpeed="15"/>
    <vehicle id="SN_173" type="car" route="SN" depart="286" departSpeed="15"/>
    <vehicle id="WETop_174" type="car" route="WETop" depart="291" departSpeed="15"/>
    <vehicle id="t5_175" type="car" route="t5" depart="292" departSpeed="15"/>
    <vehicle id="SN_176" type="car" route="SN" depart="297" departSpeed="15"/>
    <vehicle id="t5_177" type="car" route="t5" depart="297" departSpeed="15"/>
    <vehicle id="t6_178" type="car" route="t6" depart="297" departSpeed="15"/>
    <vehicle id="t3_179" type="car" route="t3" depart="299" departSpeed="15"/>
    <vehicle id="t6_180" type="car" route="t6" depart="299" departSpeed="15"/>
    <vehicle id="NS_181" type="car" route="NS" depart="300" departSpeed="15"/>
    <vehicle id="t3_182" type="car" route="t3" depart="303" departSpeed="15"/>
    <vehicle id="t4_183" type="car" route="t4" depart="304" departSpeed="15"/>
    <vehicle id="WETop_184" type="car" route="WETop" depart="305" departSpeed="15"/>
    <vehicle id="t4_185" type="car" route="t4" depart="305" departSpeed="15"/>
    <vehicle id="t5_186" type="car" route="t5" depart="306" departSpeed="15"/>
    <vehicle id="t4_187" type="car" route="t4" depart="308" departSpeed="15"/>
    <vehicle id="WETop_188" type="car" route="WETop" depart="309" departSpeed="15"/>
    <vehicle id="t3_189" type="car" route="t3" depart="314" departSpeed="15"/>
    <vehicle id="t6_190" type="car" route="t6" depart="317" departSpeed="15"/>
    <vehicle id="EWBottom_191" type="car" route="EWBottom" depart="319" departSpeed="15"/>
    <vehicle id="EWBottom_192" type="car" route="EWBottom" depart="320" departSpeed="15"/>
    <vehicle id="NS_193" type="car" route="NS" depart="320" departSpeed="15"/>
    <vehicle id="t4_194" type="car" route="t4" depart="321" departSpeed="15"/>
    <vehicle id="WETop_195" type="car" route="WETop" depart="322" departSpeed="15"/>
    <vehicle id="WEBottom_196" type="car" route="WEBottom" depart="323" departSpeed="15"/>
    <vehicle id="EWBottom_197" type="car" route="EWBottom" depart="328" departSpeed="15"/>
    <vehicle id="t3_198" type="car" route="t3" depart="334" departSpeed="15"/>
    <vehicle id="t4_199" type="car" route="t4" depart="334" departSpeed="15"/>
    <vehicle id="NS_200" type="car" route="NS" depart="335" departSpeed="15"/>
    <vehicle id="EWTop_201" type="car" route="EWTop" depart="336" departSpeed="15"/>
    <vehicle id="t4_202" type="car" route="t4" depart="337" departSpeed="15"/>
    <vehicle id="WEBottom_203" type="car" route="WEBottom" depart="338" departSpeed="15"/>
    <vehicle id="t4_204" type="car" route="t4" depart="342" departSpeed="15"/>
    <vehicle id="SN_205" type="car" route="SN" depart="343" departSpeed="15"/>
    <vehicle id="SN_206" type="car" route="SN" depart="346" departSpeed="15"/>
    <vehicle id="t2_207" type="car" route="t2" depart="346" departSpeed="15"/>
    <vehicle id="t4_208" type="car" route="t4" depart="346" departSpeed="15"/>
    <vehicle id="SN_209" type="car" route="SN" depart="347" departSpeed="15"/>
    <vehicle id="t5_210" type="car" route="t5" depart="347" departSpeed="15"/>
    <vehicle id="WEBottom_211" type="car" route="WEBottom" depart="350" departSpeed="15"/>
    <vehicle id="EWBottom_212" type="car" route="EWBottom" depart="350" departSpeed="15"/>
    <vehicle id="t2_213" type="car" route="t2" depart="352" departSpeed="15"/>
    <vehicle id="t5_214" type="car" route="t5" depart="353" departSpeed="15"/>
    <vehicle id="WEBottom_215" type="car" route="WEBottom" depart="356" departSpeed="15"/>
    <vehicle id="EWBottom_216" type="car" route="EWBottom" depart="359" departSpeed="15"/>
    <vehicle id="t3_217" type="car" route="t3" depart="360" departSpeed="15"/>
    <vehicle id="WEBottom_218" type="car" route="WEBottom" depart="362" departSpeed="15"/>
    <vehicle id="EWTop_219" type="car" route="EWTop" depart="363" departSpeed="15"/>
    <vehicle id="t5_220" type="car" route="t5" depart="363" departSpeed="15"/>
    <vehicle id="WETop_221" type="car" route="WETop" depart="367" departSpeed="15"/>
    <vehicle id="t5_222" type="car" route="t5" depart="368" departSpeed="15"/>
    <vehicle id="NS_223" type="car" route="NS" depart="371" departSpeed="15"/>
    <vehicle id="EWTop_224" type="car" route="EWTop" depart="372" departSpeed="15"/>
    <vehicle id="NS_225" type="car" route="NS" depart="372" departSpeed="15"/>
    <vehicle id="t4_226" type="car" route="t4" depart="372" departSpeed="15"/>
    <vehicle id="EWTop_227" type="car" route="EWTop" depart="373" departSpeed="15"/>
    <vehicle id="t5_228" type="car" route="t5" depart="375" departSpeed="15"/>
    <vehicle id="t6_229" type="car" route="t6" depart="375" departSpeed="15"/>
    <vehicle id="WETop_230" type="car" route="WETop" depart="376" departSpeed="15"/>
    <vehicle id="SN_231" type="car" route="SN" depart="377" departSpeed="15"/>
    <vehicle id="EWTop_232" type="car" route="EWTop" depart="378" departSpeed="15"/>
    <vehicle id="t4_233" type="car" route="t4" depart="379" departSpeed="15"/>
    <vehicle id="t3_234" type="car" route="t3" depart="380" departSpeed="15"/>
    <vehicle id="t4_235" type="car" route="t4" depart="381" departSpeed="15"/>
    <vehicle id="t3_236" type="car" route="t3" depart="382" departSpeed="15"/>
    <vehicle id="SN_237" type="car" route="SN" depart="385" departSpeed="15"/>
    <vehicle id="t4_238" type="car" route="t4" depart="386" departSpeed="15"/>
    <vehicle id="NS_239" type="car" route="NS" depart="387" departSpeed="15"/>
    <vehicle id="t6_240" type="car" route="t6" depart="387" departSpeed="15"/>
    <vehicle id="EWTop_241" type="car" route="EWTop" depart="388" departSpeed="15"/>
    <vehicle id="t4_242" type="car" route="t4" depart="388" departSpeed="15"/>
    <vehicle id="WETop_243" type="car" route="WETop" depart="393" departSpeed="15"/>
    <vehicle id="EWBottom_244" type="car" route="EWBottom" depart="396" departSpeed="15"/>
    <vehicle id="t4_245" type="car" route="t4" depart="399" departSpeed="15"/>
    <vehicle id="EWTop_246" type="car" route="EWTop" depart="400" departSpeed="15"/>
    <vehicle id="t5_247" type="car" route="t5" depart="405" departSpeed="15"/>
    <vehicle id="EWBottom_248" type="car" route="EWBottom" depart="406" departSpeed="15"/>
    <vehicle id="t2_249" type="car" route="t2" depart="413" departSpeed="15"/>
    <vehicle id="WEBottom_250" type="car" route="WEBottom" depart="414" departSpeed="15"/>
    <vehicle id="t2_251" type="car" route="t2" depart="416" departSpeed="15"/>
    <vehicle id="NS_252" type="car" route="NS" depart="417" departSpeed="15"/>
    <vehicle id="t3_253" type="car" route="t3" depart="417" departSpeed="15"/>
    <vehicle id="WEBottom_254" type="car" route="WEBottom" depart="418" departSpeed="15"/>
    <vehicle id="t4_255" type="car" route="t4" depart="419" departSpeed="15"/>
    <vehicle id="t4_256" type="car" route="t4" depart="421" departSpeed="15"/>
    <vehicle id="t6_257" type="car" route="t6" depart="424" departSpeed="15"/>
    <vehicle id="EWTop_258" type="car" route="EWTop" depart="428" departSpeed="15"/>
    <vehicle id="EWBottom_259" type="car" route="EWBottom" depart="429" departSpeed="15"/>
    <vehicle id="t2_260" type="car" route="t2" depart="429" departSpeed="15"/>
    <vehicle id="t4_261" type="car" route="t4" depart="429" departSpeed="15"/>
    <vehicle id="t5_262" type="car" route="t5" depart="430" departSpeed="15"/>
    <vehicle id="t2_263" type="car" route="t2" depart="432" departSpeed="15"/>
    <vehicle id="t5_264" type="car" route="t5" depart="433" departSpeed="15"/>
    <vehicle id="WEBottom_265" type="car" route="WEBottom" depart="435" departSpeed="15"/>
    <vehicle id="WETop_266" type="car" route="WETop" depart="438" departSpeed="15"/>
    <vehicle id="t4_267" type="car" route="t4" depart="438" departSpeed="15"/>
    <vehicle id="NS_268" type="car" route="NS" depart="440" departSpeed="15"/>
    <vehicle id="t4_269" type="car" route="t4" depart="443" departSpeed="15"/>
    <vehicle id="EWTop_270" type="car" route="EWTop" depart="447" departSpeed="15"/>
    <vehicle id="EWBottom_271" type="car" route="EWBottom" depart="448" departSpeed="15"/>
    <vehicle id="NS_272" type="car" route="NS" depart="448" departSpeed="15"/>
    <vehicle id="WETop_273" type="car" route="WETop" depart="449" departSpeed="15"/>
    <vehicle id="t4_274" type="car" route="t4" depart="450" departSpeed="15"/>
    <vehicle id="t6_275" type="car" route="t6" depart="450" departSpeed="15"/>
    <vehicle id="WEBottom_276" type="car" route="WEBottom" depart="454" departSpeed="15"/>
    <vehicle id="t4_277" type="car" route="t4" depart="454" departSpeed="15"/>
    <vehicle id="t5_278" type="car" route="t5" depart="454" departSpeed="15"/>
    <vehicle id="EWTop_279" type="car" route="EWTop" depart="456" departSpeed="15"/>
    <vehicle id="SN_280" type="car" route="SN" depart="456" departSpeed="15"/>
    <vehicle id="t6_281" type="car" route="t6" depart="456" departSpeed="15"/>
    <vehicle id="NS_282" type="car" route="NS" depart="457" departSpeed="15"/>
    <vehicle id="t3_283" type="car" route="t3" depart="457" departSpeed="15"/>
    <vehicle id="NS_284" type="car" route="NS" depart="459" departSpeed="15"/>
    <vehicle id="WETop_285" type="car" route="WETop" depart="464" departSpeed="15"/>
    <vehicle id="EWTop_286" type="car" route="EWTop" depart="465" departSpeed="15"/>
    <vehicle id="EWBottom_287" type="car" route="EWBottom" depart="468" departSpeed="15"/>
    <vehicle id="t4_288" type="car" route="t4" depart="468" departSpeed="15"/>
    <vehicle id="EWBottom_289" type="car" route="EWBottom" depart="470" departSpeed="15"/>
    <vehicle id="EWBottom_290" type="car" route="EWBottom" depart="471" departSpeed="15"/>
    <vehicle id="t2_291" type="car" route="t2" depart="471" departSpeed="15"/>
    <vehicle id="t2_292" type="car" route="t2" depart="472" departSpeed="15"/>
    <vehicle id="EWBottom_293" type="car" route="EWBottom" depart="474" departSpeed="15"/>
    <vehicle id="WETop_294" type="car" route="WETop" depart="475" departSpeed="15"/>
    <vehicle id="SN_295" type="car" route="SN" depart="476" departSpeed="15"/>
    <vehicle id="t6_296" type="car" route="t6" depart="477" departSpeed="15"/>
    <vehicle id="NS_297" type="car" route="NS" depart="483" departSpeed="15"/>
    <vehicle id="t3_298" type="car" route="t3" depart="484" departSpeed="15"/>
    <vehicle id="SN_299" type="car" route="SN" depart="488" departSpeed="15"/>
    <vehicle id="t4_300" type="car" route="t4" depart="489" departSpeed="15"/>
    <vehicle id="t5_301" type="car" route="t5" depart="490" departSpeed="15"/>
    <vehicle id="t6_302" type="car" route="t6" depart="490" departSpeed="15"/>
    <vehicle id="WEBottom_303" type="car" route="WEBottom" depart="491" departSpeed="15"/>
    <vehicle id="t5_304" type="car" route="t5" depart="494" departSpeed="15"/>
    <vehicle id="t3_305" type="car" route="t3" depart="496" departSpeed="15"/>
    <vehicle id="EWBottom_306" type="car" route="EWBottom" depart="498" departSpeed="15"/>
    <vehicle id="t2_307" type="car" route="t2" depart="498" departSpeed="15"/>
    <vehicle id="t3_308" type="car" route="t3" depart="499" departSpeed="15"/>
    <vehicle id="t4_309" type="car" route="t4" depart="499" departSpeed="15"/>
    <vehicle id="EWTop_310" type="car" route="EWTop" depart="502" departSpeed="15"/>
    <vehicle id="WEBottom_311" type="car" route="WEBottom" depart="502" departSpeed="15"/>
    <vehicle id="t5_312" type="car" route="t5" depart="502" departSpeed="15"/>
    <vehicle id="SN_313" type="car" route="SN" depart="509" departSpeed="15"/>
    <vehicle id="EWTop_314" type="car" route="EWTop" depart="510" departSpeed="15"/>
    <vehicle id="WETop_315" type="car" route="WETop" depart="511" departSpeed="15"/>
    <vehicle id="WETop_316" type="car" route="WETop" depart="512" departSpeed="15"/>
    <vehicle id="NS_317" type="car" route="NS" depart="512" departSpeed="15"/>
    <vehicle id="SN_318" type="car" route="SN" depart="517" departSpeed="15"/>
    <vehicle id="t5_319" type="car" route="t5" depart="521" departSpeed="15"/>
    <vehicle id="t5_320" type="car" route="t5" depart="523" departSpeed="15"/>
    <vehicle id="t6_321" type="car" route="t6" depart="524" departSpeed="15"/>
    <vehicle id="WEBottom_322" type="car" route="WEBottom" depart="526" departSpeed="15"/>
    <vehicle id="WETop_323" type="car" route="WETop" depart="527" departSpeed="15"/>
    <vehicle id="NS_324" type="car" route="NS" depart="527" departSpeed="15"/>
    <vehicle id="t3_325" type="car" route="t3" depart="527" departSpeed="15"/>
    <vehicle id="EWTop_326" type="car" route="EWTop" depart="528" departSpeed="15"/>
    <vehicle id="t2_327" type="car" route="t2" depart="530" departSpeed="15"/>
    <vehicle id="NS_328" type="car" route="NS" depart="534" departSpeed="15"/>
    <vehicle id="NS_329" type="car" route="NS" depart="538" departSpeed="15"/>
    <vehicle id="t6_330" type="car" route="t6" depart="539" departSpeed="15"/>
    <vehicle id="SN_331" type="car" route="SN" depart="541" departSpeed="15"/>
    <vehicle id="WEBottom_332" type="car" route="WEBottom" depart="545" departSpeed="15"/>
    <vehicle id="t4_333" type="car" route="t4" depart="545" departSpeed="15"/>
    <vehicle id="t3_334" type="car" route="t3" depart="547" departSpeed="15"/>
    <vehicle id="EWBottom_335" type="car" route="EWBottom" depart="548" departSpeed="15"/>
    <vehicle id="EWTop_336" type="car" route="EWTop" depart="550" departSpeed="15"/>
    <vehicle id="WEBottom_337" type="car" route="WEBottom" depart="550" departSpeed="15"/>
    <vehicle id="WETop_338" type="car" route="WETop" depart="552" departSpeed="15"/>
    <vehicle id="t4_339" type="car" route="t4" depart="552" departSpeed="15"/>
    <vehicle id="t3_340" type="car" route="t3" depart="553" departSpeed="15"/>
    <vehicle id="t2_341" type="car" route="t2" depart="557" departSpeed="15"/>
    <vehicle id="t3_342" type="car" route="t3" depart="557" departSpeed="15"/>
    <vehicle id="t3_343" type="car" route="t3" depart="558" departSpeed="15"/>
    <vehicle id="t3_344" type="car" route="t3" depart="559" departSpeed="15"/>
    <vehicle id="t3_345" type="car" route="t3" depart="562" departSpeed="15"/>
    <vehicle id="t3_346" type="car" route="t3" depart="564" departSpeed="15"/>
    <vehicle id="t2_347" type="car" route="t2" depart="568" departSpeed="15"/>
    <vehicle id="SN_348" type="car" route="SN" depart="569" departSpeed="15"/>
    <vehicle id="t4_349" type="car" route="t4" depart="569" departSpeed="15"/>
    <vehicle id="EWBottom_350" type="car" route="EWBottom" depart="570" departSpeed="15"/>
    <vehicle id="SN_351" type="car" route="SN" depart="575" departSpeed="15"/>
    <vehicle id="t3_352" type="car" route="t3" depart="576" departSpeed="15"/>
    <vehicle id="t2_353" type="car" route="t2" depart="577" departSpeed="15"/>
    <vehicle id="t5_354" type="car" route="t5" depart="579" departSpeed="15"/>
    <vehicle id="WETop_355" type="car" route="WETop" depart="581" departSpeed="15"/>