<routes>
            <vType id="car" accel="1.0" decel="4.5" sigma="0.7" length="5" minGap="3" maxSpeed="15" guiShape="passenger"/>

            <route id="right" edges="1i 2o" />
            <route id="left" edges="2i 1o" />
            <route id="down" edges="4i 3o" />
            <route id="up" edges="3i 4o" />
    <vehicle id="right_0" type="car" route="right" depart="1" departSpeed="5"/>
    <vehicle id="down_1" type="car" route="down" depart="1" departSpeed="5"/>
    <vehicle id="up_2" type="car" route="up" depart="4" departSpeed="5"/>
    <vehicle id="down_3" type="car" route="down" depart="6" departSpeed="5"/>
    <vehicle id="up_4" type="car" route="up" depart="13" departSpeed="5"/>
    <vehicle id="down_5" type="car" route="down" depart="14" departSpeed="5"/>
    <vehicle id="left_6" type="car" route="left" depart="15" departSpeed="5"/>
    <vehicle id="right_7" type="car" route="right" depart="21" departSpeed="5"/>
    <vehicle id="left_8" type="car" route="left" depart="21" departSpeed="5"/>
    <vehicle id="right_9" type="car" route="right" depart="22" departSpeed="5"/>
    <vehicle id="left_10" type="car" route="left" depart="24" departSpeed="5"/>
    <vehicle id="left_11" type="car" route="left" depart="27" departSpeed="5"/>
    <vehicle id="down_12" type="car" route="down" depart="30" departSpeed="5"/>
    <vehicle id="right_13" type="car" route="right" depart="38" departSpeed="5"/>
    <vehicle id="down_14" type="car" route="down" depart="44" departSpeed="5"/>
    <vehicle id="right_15" type="car" route="right" depart="46" departSpeed="5"/>
    <vehicle id="left_16" type="car" route="left" depart="48" departSpeed="5"/>
    <vehicle id="up_17" type="car" route="up" depart="48" departSpeed="5"/>
    <vehicle id="left_18" type="car" route="left" depart="62" departSpeed="5"/>
    <vehicle id="left_19" type="car" route="left" depart="65" departSpeed="5"/>
    <vehicle id="right_20" type="car" route="right" depart="66" departSpeed="5"/>
    <vehicle id="down_21" type="car" route="down" depart="68" departSpeed="5"/>
    <vehicle id="right_22" type="car" route="right" depart="69" departSpeed="5"/>
    <vehicle id="down_23" type="car" route="down" depart="70" departSpeed="5"/>
    <vehicle id="left_24" type="car" route="left" depart="73" departSpeed="5"/>
    <vehicle id="up_25" type="car" route="up" depart="73" departSpeed="5"/>
    <vehicle id="right_26" type="car" route="right" depart="76" departSpeed="5"/>
    <vehicle id="down_27" type="car" route="down" depart="79" departSpeed="5"/>
    <vehicle id="up_28" type="car" route="up" depart="81" departSpeed="5"/>
    <vehicle id="down_29" type="car" route="down" depart="86" departSpeed="5"/>
    <vehicle id="right_30" type="car" route="right" depart="87" departSpeed="5"/>
    <vehicle id="left_31" type="car" route="left" depart="88" departSpeed="5"/>
    <vehicle id="left_32" type="car" route="left" depart="92" departSpeed="5"/>
    <vehicle id="left_33" type="car" route="left" depart="93" departSpeed="5"/>
    <vehicle id="down_34" type="car" route="down" depart="95" departSpeed="5"/>
    <vehicle id="up_35" type="car" route="up" depart="97" departSpeed="5"/>
    <vehicle id="up_36" type="car" route="up" depart="98" departSpeed="5"/>
    <vehicle id="down_37" type="car" route="down" depart="101" departSpeed="5"/>
    <vehicle id="down_38" type="car" route="down" depart="102" departSpeed="5"/>
    <vehicle id="up_39" type="car" route="up" depart="103" departSpeed="5"/>
    <vehicle id="down_40" type="car" route="down" depart="119" departSpeed="5"/>
    <vehicle id="down_41" type="car" route="down" depart="124" departSpeed="5"/>
    <vehicle id="down_42" type="car" route="down" depart="130" departSpeed="5"/>
    <vehicle id="right_43" type="car" route="right" depart="134" departSpeed="5"/>
    <vehicle id="up_44" type="car" route="up" depart="134" departSpeed="5"/>
    <vehicle id="down_45" type="car" route="down" depart="138" departSpeed="5"/>
    <vehicle id="up_46" type="car" route="up" depart="138" departSpeed="5"/>
    <vehicle id="down_47" type="car" route="down" depart="139" departSpeed="5"/>
    <vehicle id="up_48" type="car" route="up" depart="150" departSpeed="5"/>
    <vehicle id="left_49" type="car" route="left" depart="155" departSpeed="5"/>
    <vehicle id="left_50" type="car" route="left" depart="156" departSpeed="5"/>
    <vehicle id="down_51" type="car" route="down" depart="157" departSpeed="5"/>
    <vehicle id="left_52" type="car" route="left" depart="158" departSpeed="5"/>
    <vehicle id="right_53" type="car" route="right" depart="159" departSpeed="5"/>
    <vehicle id="right_54" type="car" route="right" depart="160" departSpeed="5"/>
    <vehicle id="left_55" type="car" route="left" depart="161" departSpeed="5"/>
    <vehicle id="right_56" type="car" route="right" depart="162" departSpeed="5"/>
    <vehicle id="down_57" type="car" route="down" depart="162" departSpeed="5"/>
    <vehicle id="right_58" type="car" route="right" depart="169" departSpeed="5"/>
    <vehicle id="right_59" type="car" route="right" depart="171" departSpeed="5"/>
    <vehicle id="right_60" type="car" route="right" depart="174" departSpeed="5"/>
    <vehicle id="up_61" type="car" route="up" depart="177" departSpeed="5"/>
    <vehicle id="right_62" type="car" route="right" depart="179" departSpeed="5"/>
    <vehicle id="down_63" type="car" route="down" depart="179" departSpeed="5"/>
    <vehicle id="up_64" type="car" route="up" depart="179" departSpeed="5"/>
    <vehicle id="left_65" type="car" route="left" depart="181" departSpeed="5"/>
    <vehicle id="left_66" type="car" route="left" depart="182" departSpeed="5"/>
    <vehicle id="left_67" type="car" route="left" depart="184" departSpeed="5"/>
    <vehicle id="right_68" type="car" route="right" depart="188" departSpeed="5"/>
    <vehicle id="down_69" type="car" route="down" depart="188" departSpeed="5"/>
    <vehicle id="right_70" type="car" route="right" depart="191" departSpeed="5"/>
    <vehicle id="up_71" type="car" route="up" depart="191" departSpeed="5"/>
    <vehicle id="right_72" type="car" route="right" depart="192" departSpeed="5"/>
    <vehicle id="left_73" type="car" route="left" depart="192" departSpeed="5"/>
    <vehicle id="left_74" type="car" route="left" depart="197" departSpeed="5"/>
    <vehicle id="down_75" type="car" route="down" depart="197" departSpeed="5"/>
    <vehicle id="left_76" type="car" route="left" depart="199" departSpeed="5"/>
    <vehicle id="up_77" type="car" route="up" depart="199" departSpeed="5"/>
    <vehicle id="right_78" type="car" route="right" depart="202" departSpeed="5"/>
    <vehicle id="up_79" type="car" route="up" depart="202" departSpeed="5"/>
    <vehicle id="left_80" type="car" route="left" depart="209" departSpeed="5"/>
    <vehicle id="right_81" type="car" route="right" depart="211" departSpeed="5"/>
    <vehicle id="right_82" type="car" route="right" depart="216" departSpeed="5"/>
    <vehicle id="down_83" type="car" route="down" depart="218" departSpeed="5"/>
    <vehicle id="left_84" type="car" route="left" depart="221" departSpeed="5"/>
    <vehicle id="up_85" type="car" route="up" depart="221" departSpeed="5"/>
    <vehicle id="down_86" type="car" route="down" depart="225" departSpeed="5"/>
    <vehicle id="up_87" type="car" route="up" depart="226" departSpeed="5"/>
    <vehicle id="right_88" type="car" route="right" depart="228" departSpeed="5"/>
    <vehicle id="down_89" type="car" route="down" depart="236" departSpeed="5"/>
    <vehicle id="right_90" type="car" route="right" depart="244" departSpeed="5"/>
    <vehicle id="up_91" type="car" route="up" depart="255" departSpeed="5"/>
    <vehicle id="right_92" type="car" route="right" depart="256" departSpeed="5"/>
    <vehicle id="left_93" type="car" route="left" depart="256" departSpeed="5"/>
    <vehicle id="down_94" type="car" route="down" depart="263" departSpeed="5"/>
    <vehicle id="left_95" type="car" route="left" depart="266" departSpeed="5"/>
    <vehicle id="right_96" type="car" route="right" depart="267" departSpeed="5"/>
    <vehicle id="up_97" type="car" route="up" depart="267" departSpeed="5"/>
    <vehicle id="left_98" type="car" route="left" depart="268" departSpeed="5"/>
    <vehicle id="down_99" type="car" route="down" depart="268" departSpeed="5"/>
    <vehicle id="up_100" type="car" route="up" depart="268" departSpeed="5"/>
    <vehicle id="down_101" type="car" route="down" depart="273" departSpeed="5"/>
    <vehicle id="right_102" type="car" route="right" depart="276" departSpeed="5"/>
    <vehicle id="down_103" type="car" route="down" depart="276" departSpeed="5"/>
    <vehicle id="right_104" type="car" route="right" depart="279" departSpeed="5"/>
    <vehicle id="right_105" type="car" route="right" depart="282" departSpeed="5"/>
    <vehicle id="left_106" type="car" route="left" depart="282" departSpeed="5"/>
    <vehicle id="up_107" type="car" route="up" depart="282" departSpeed="5"/>
    <vehicle id="right_108" type="car" route="right" depart="283" departSpeed="5"/>
    <vehicle id="up_109" type="car" route="up" depart="286" departSpeed="5"/>
    <vehicle id="right_110" type="car" route="right" depart="288" departSpeed="5"/>
    <vehicle id="left_111" type="car" route="left" depart="288" departSpeed="5"/>
    <vehicle id="up_112" type="car" route="up" depart="288" departSpeed="5"/>
    <vehicle id="right_113" type="car" route="right" depart="289" departSpeed="5"/>
    <vehicle id="down_114" type="car" route="down" depart="292" departSpeed="5"/>
    <vehicle id="right_115" type="car" route="right" depart="302" departSpeed="5"/>
    <vehicle id="down_116" type="car" route="down" depart="302" departSpeed="5"/>
    <vehicle id="down_117" type="car" route="down" depart="303" departSpeed="5"/>
    <vehicle id="right_118" type="car" route="right" depart="305" departSpeed="5"/>
    <vehicle id="left_119" type="car" route="left" depart="306" departSpeed="5"/>
    <vehicle id="up_120" type="car" route="up" depart="309" departSpeed="5"/>
    <vehicle id="left_121" type="car" route="left" depart="312" departSpeed="5"/>
    <vehicle id="left_122" type="car" route="left" depart="314" departSpeed="5"/>
    <vehicle id="left_123" type="car" route="left" depart="318" departSpeed="5"/>
    <vehicle id="left_124" type="car" route="left" depart="321" departSpeed="5"/>
    <vehicle id="up_125" type="car" route="up" depart="321" departSpeed="5"/>
    <vehicle id="right_126" type="car" route="right" depart="324" departSpeed="5"/>
    <vehicle id="up_127" type="car" route="up" depart="329" departSpeed="5"/>
    <vehicle id="up_128" type="car" route="up" depart="336" departSpeed="5"/>
    <vehicle id="left_129" type="car" route="left" depart="339" departSpeed="5"/>
    <vehicle id="up_130" type="car" route="up" depart="340" departSpeed="5"/>
    <vehicle id="down_131" type="car" route="down" depart="341" departSpeed="5"/>
    <vehicle id="up_132" type="car" route="up" depart="341" departSpeed="5"/>
    <vehicle id="right_133" type="car" route="right" depart="342" departSpeed="5"/>
    <vehicle id="right_134" type="car" route="right" depart="344" departSpeed="5"/>
    <vehicle id="left_135" type="car" route="left" depart="348" departSpeed="5"/>
    <vehicle id="down_136" type="car" route="down" depart="349" departSpeed="5"/>
    <vehicle id="left_137" type="car" route="left" depart="352" departSpeed="5"/>
    <vehicle id="down_138" type="car" route="down" depart="354" departSpeed="5"/>
    <vehicle id="left_139" type="car" route="left" depart="358" departSpeed="5"/>
    <vehicle id="right_140" type="car" route="right" depart="369" departSpeed="5"/>
    <vehicle id="down_141" type="car" route="down" depart="371" departSpeed="5"/>
    <vehicle id="down_142" type="car" route="down" depart="375" departSpeed="5"/>
    <vehicle id="right_143" type="car" route="right" depart="378" departSpeed="5"/>
    <vehicle id="left_144" type="car" route="left" depart="378" departSpeed="5"/>
    <vehicle id="right_145" type="car" route="right" depart="381" departSpeed="5"/>
    <vehicle id="down_146" type="car" route="down" depart="382" departSpeed="5"/>
    <vehicle id="up_147" type="car" route="up" depart="383" departSpeed="5"/>
    <vehicle id="down_148" type="car" route="down" depart="387" departSpeed="5"/>
    <vehicle id="down_149" type="car" route="down" depart="389" departSpeed="5"/>
    <vehicle id="down_150" type="car" route="down" depart="390" departSpeed="5"/>
    <vehicle id="up_151" type="car" route="up" depart="394" departSpeed="5"/>
    <vehicle id="down_152" type="car" route="down" depart="395" departSpeed="5"/>
    <vehicle id="down_153" type="car" route="down" depart="398" departSpeed="5"/>
    <vehicle id="left_154" type="car" route="left" depart="401" departSpeed="5"/>
    <vehicle id="up_155" type="car" route="up" depart="405" departSpeed="5"/>
    <vehicle id="right_156" type="car" route="right" depart="407" departSpeed="5"/>
    <vehicle id="up_157" type="car" route="up" depart="409" departSpeed="5"/>
    <vehicle id="down_158" type="car" route="down" depart="416" departSpeed="5"/>
    <vehicle id="left_159" type="car" route="left" depart="419" departSpeed="5"/>
    <vehicle id="up_160" type="car" route="up" depart="424" departSpeed="5"/>
    <vehicle id="up_161" type="car" route="up" depart="425" departSpeed="5"/>
    <vehicle id="down_162" type="car" route="down" depart="426" departSpeed="5"/>
    <vehicle id="down_163" type="car" route="down" depart="427" departSpeed="5"/>
    <vehicle id="up_164" type="car" route="up" depart="432" departSpeed="5"/>
    <vehicle id="left_165" type="car" route="left" depart="435" departSpeed="5"/>
    <vehicle id="up_166" type="car" route="up" depart="435" departSpeed="5"/>
    <vehicle id="up_167" type="car" route="up" depart="436" departSpeed="5"/>
    <vehicle id="up_168" type="car" route="up" depart="438" departSpeed="5"/>
    <vehicle id="right_169" type="car" route="right" depart="442" departSpeed="5"/>
    <vehicle id="right_170" type="car" route="right" depart="444" departSpeed="5"/>
    <vehicle id="right_171" type="car" route="right" depart="447" departSpeed="5"/>
    <vehicle id="left_172" type="car" route="left" depart="447" departSpeed="5"/>
    <vehicle id="down_173" type="car" route="down" depart="452" departSpeed="5"/>
    <vehicle id="up_174" type="car" route="up" depart="460" departSpeed="5"/>
    <vehicle id="up_175" type="car" route="up" depart="463" departSpeed="5"/>
    <vehicle id="right_176" type="car" route="right" depart="464" departSpeed="5"/>
    <vehicle id="right_177" type="car" route="right" depart="465" departSpeed="5"/>
    <vehicle id="left_178" type="car" route="left" depart="465" departSpeed="5"/>
    <vehicle id="left_179" type="car" route="left" depart="468" departSpeed="5"/>
    <vehicle id="left_180" type="car" route="left" depart="476" departSpeed="5"/>
    <vehicle id="left_181" type="car" route="left" depart="478" departSpeed="5"/>
    <vehicle id="up_182" type="car" route="up" depart="478" departSpeed="5"/>
    <vehicle id="up_183" type="car" route="up" depart="480" departSpeed="5"/>
    <vehicle id="right_184" type="car" route="right" depart="482" departSpeed="5"/>
    <vehicle id="left_185" type="car" route="left" depart="485" departSpeed="5"/>
    <vehicle id="right_186" type="car" route="right" depart="487" departSpeed="5"/>
    <vehicle id="down_187" type="car" route="down" depart="490" departSpeed="5"/>
    <vehicle id="down_188" type="car" route="down" depart="491" departSpeed="5"/>
    <vehicle id="right_189" type="car" route="right" depart="492" departSpeed="5"/>
    <vehicle id="down_190" type="car" route="down" depart="496" departSpeed="5"/>
    <vehicle id="right_191" type="car" route="right" depart="499" departSpeed="5"/>
    <vehicle id="up_192" type="car" route="up" depart="500" departSpeed="5"/>
    <vehicle id="left_193" type="car" route="left" depart="503" departSpeed="5"/>
    <vehicle id="left_194" type="car" route="left" depart="513" departSpeed="5"/>
    <vehicle id="left_195" type="car" route="left" depart="518" departSpeed="5"/>
    <vehicle id="up_196" type="car" route="up" depart="529" departSpeed="5"/>
    <vehicle id="left_197" type="car" route="left" depart="534" departSpeed="5"/>
    <vehicle id="left_198" type="car" route="left" depart="536" departSpeed="5"/>
    <vehicle id="right_199" type="car" route="right" depart="540" departSpeed="5"/>
    <vehicle id="right_200" type="car" route="right" depart="541" departSpeed="5"/>
    <vehicle id="right_201" type="car" route="right" depart="543" departSpeed="5"/>
    <vehicle id="up_202" type="car" route="up" depart="544" departSpeed="5"/>
    <vehicle id="up_203" type="car" route="up" depart="552" departSpeed="5"/>
    <vehicle id="right_204" type="car" route="right" depart="555" departSpeed="5"/>
    <vehicle id="up_205" type="car" route="up" depart="558" departSpeed="5"/>
    <vehicle id="down_206" type="car" route="down" depart="559" departSpeed="5"/>
    <vehicle id="up_207" type="car" route="up" depart="562" departSpeed="5"/>
    <vehicle id="left_208" type="car" route="left" depart="563" departSpeed="5"/>
    <vehicle id="left_209" type="car" route="left" depart="564" departSpeed="5"/>
    <vehicle id="up_210" type="car" route="up" depart="564" departSpeed="5"/>
    <vehicle id="left_211" type="car" route="left" depart="565" departSpeed="5"/>
    <vehicle id="down_212" type="car" route="down" depart="568" departSpeed="5"/>
    <vehicle id="left_213" type="car" route="left" depart="573" departSpeed="5"/>
    <vehicle id="up_214" type="car" route="up" depart="574" departSpeed="5"/>
    <vehicle id="left_215" type="car" route="left" depart="577" departSpeed="5"/>
    <vehicle id="right_216" type="car" route="right" depart="578" departSpeed="5"/>
    <vehicle id="up_217" type="car" route="up" depart="581" departSpeed="5"/>
    <vehicle id="right_218" type="car" route="right" depart="582" departSpeed="5"/>
    <vehicle id="left_219" type="car" route="left" depart="583" departSpeed="5"/>
    <vehicle id="up_220" type="car" route="up" depart="583" departSpeed="5"/>
    <vehicle id="left_221" type="car" route="left" depart="589" departSpeed="5"/>
    <vehicle id="right_222" type="car" route="right" depart="597" departSpeed="5"/>
    <vehicle id="right_223" type="car" route="right" depart="611" departSpeed="5"/>
    <vehicle id="right_224" type="car" route="right" depart="613" departSpeed="5"/>
    <vehicle id="down_225" type="car" route="down" depart="614" departSpeed="5"/>
    <vehicle id="up_226" type="car" route="up" depart="616" departSpeed="5"/>
    <vehicle id="up_227" type="car" route="up" depart="617" departSpeed="5"/>
    <vehicle id="left_228" type="car" route="left" depart="620" departSpeed="5"/>
    <vehicle id="right_229" type="car" route="right" depart="627" departSpeed="5"/>
    <vehicle id="right_230" type="car" route="right" depart="632" departSpeed="5"/>
    <vehicle id="down_231" type="car" route="down" depart="642" departSpeed="5"/>
    <vehicle id="right_232" type="car" route="right" depart="645" departSpeed="5"/>
    <vehicle id="up_233" type="car" route="up" depart="648" departSpeed="5"/>
    <vehicle id="down_234" type="car" route="down" depart="649" departSpeed="5"/>
    <vehicle id="left_235" type="car" route="left" depart="653" departSpeed="5"/>
    <vehicle id="down_236" type="car" route="down" depart="653" departSpeed="5"/>
    <vehicle id="up_237" type="car" route="up" depart="655" departSpeed="5"/>
    <vehicle id="left_238" type="car" route="left" depart="656" departSpeed="5"/>
    <vehicle id="left_239" type="car" route="left" depart="658" departSpeed="5"/>
    <vehicle id="down_240" type="car" route="down" depart="666" departSpeed="5"/>
    <vehicle id="up_241" type="car" route="up" depart="668" departSpeed="5"/>
    <vehicle id="up_242" type="car" route="up" depart="671" departSpeed="5"/>
    <vehicle id="left_243" type="car" route="left" depart="674" departSpeed="5"/>
    <vehicle id="down_244" type="car" route="down" depart="677" departSpeed="5"/>
    <vehicle id="down_245" type="car" route="down" depart="678" departSpeed="5"/>
    <vehicle id="down_246" type="car" route="down" depart="682" departSpeed="5"/>
    <vehicle id="left_247" type="car" route="left" depart="687" departSpeed="5"/>
    <vehicle id="right_248" type="car" route="right" depart="689" departSpeed="5"/>
    <vehicle id="right_249" type="car" route="right" depart="690" departSpeed="5"/>
    <vehicle id="right_250" type="car" route="right" depart="692" departSpeed="5"/>
    <vehicle id="up_251" type="car" route="up" depart="693" departSpeed="5"/>
    <vehicle id="up_252" type="car" route="up" depart="694" departSpeed="5"/>
    <vehicle id="left_253" type="car" route="left" depart="696" departSpeed="5"/>
    <vehicle id="down_254" type="car" route="down" depart="697" departSpeed="5"/>
    <vehicle id="right_255" type="car" route="right" depart="698" departSpeed="5"/>
    <vehicle id="left_256" type="car" route="left" depart="700" departSpeed="5"/>
    <vehicle id="down_257" type="car" route="down" depart="700" departSpeed="5"/>
    <vehicle id="up_258" type="car" route="up" depart="702" departSpeed="5"/>
    <vehicle id="left_259" type="car" route="left" depart="706" departSpeed="5"/>
    <vehicle id="up_260" type="car" route="up" depart="706" departSpeed="5"/>
    <vehicle id="left_261" type="car" route="left" depart="708" departSpeed="5"/>
    <vehicle id="left_262" type="car" route="left" depart="709" departSpeed="5"/>
    <vehicle id="down_263" type="car" route="down" depart="712" departSpeed="5"/>
    <vehicle id="up_264" type="car" route="up" depart="712" departSpeed="5"/>
    <vehicle id="right_265" type="car" route="right" depart="716" departSpeed="5"/>
    <vehicle id="up_266" type="car" route="up" depart="721" departSpeed="5"/>
    <vehicle id="up_267" type="car" route="up" depart="722" departSpeed="5"/>
    <vehicle id="up_268" type="car" route="up" depart="726" departSpeed="5"/>
    <vehicle id="down_269" type="car" route="down" depart="731" departSpeed="5"/>
    <vehicle id="left_270" type="car" route="left" depart="732" departSpeed="5"/>
    <vehicle id="down_271" type="car" route="down" depart="733" departSpeed="5"/>
    <vehicle id="up_272" type="car" route="up" depart="733" departSpeed="5"/>
    <vehicle id="down_273" type="car" route="down" depart="735" departSpeed="5"/>
    <vehicle id="up_274" type="car" route="up" depart="738" departSpeed="5"/>
    <vehicle id="down_275" type="car" route="down" depart="739" departSpeed="5"/>
    <vehicle id="down_276" type="car" route="down" depart="745" departSpeed="5"/>
    <vehicle id="left_277" type="car" route="left" depart="746" departSpeed="5"/>
    <vehicle id="left_278" type="car" route="left" depart="747" departSpeed="5"/>
    <vehicle id="down_279" type="car" route="down" depart="749" departSpeed="5"/>
    <vehicle id="up_280" type="car" route="up" depart="749" departSpeed="5"/>
    <vehicle id="up_281" type="car" route="up" depart="753" departSpeed="5"/>
    <vehicle id="down_282" type="car" route="down" depart="760" departSpeed="5"/>
    <vehicle id="left_283" type="car" route="left" depart="767" departSpeed="5"/>
    <vehicle id="right_284" type="car" route="right" depart="769" departSpeed="5"/>
    <vehicle id="right_285" type="car" route="right" depart="773" departSpeed="5"/>
    <vehicle id="left_286" type="car" route="left" depart="775" departSpeed="5"/>
    <vehicle id="down_287" type="car" route="down" depart="775" departSpeed="5"/>
    <vehicle id="down_288" type="car" route="down" depart="777" departSpeed="5"/>
    <vehicle id="right_289" type="car" route="right" depart="778" departSpeed="5"/>
    <vehicle id="up_290" type="car" route="up" depart="778" departSpeed="5"/>
    <vehicle id="left_291" type="car" route="left" depart="784" departSpeed="5"/>
    <vehicle id="down_292" type="car" route="down" depart="786" departSpeed="5"/>
    <vehicle id="right_293" type="car" route="right" depart="787" departSpeed="5"/>
    <vehicle id="up_294" type="car" route="up" depart="788" departSpeed="5"/>
    <vehicle id="down_295" type="car" route="down" depart="790" departSpeed="5"/>
    <vehicle id="left_296" type="car" route="left" depart="793" departSpeed="5"/>
    <vehicle id="right_297" type="car" route="right" depart="797" departSpeed="5"/>
    <vehicle id="right_298" type="car" route="right" depart="799" departSpeed="5"/>
    <vehicle id="right_299" type="car" route="right" depart="801" departSpeed="5"/>
    <vehicle id="down_300" type="car" route="down" depart="801" departSpeed="5"/>
    <vehicle id="right_301" type="car" route="right" depart="807" departSpeed="5"/>
    <vehicle id="right_302" type="car" route="right" depart="814" departSpeed="5"/>
    <vehicle id="down_303" type="car" route="down" depart="815" departSpeed="5"/>
    <vehicle id="left_304" type="car" route="left" depart="819" departSpeed="5"/>
    <vehicle id="right_305" type="car" route="right" depart="827" departSpeed="5"/>
    <vehicle id="down_306" type="car" route="down" depart="828" departSpeed="5"/>
    <vehicle id="down_307" type="car" route="down" depart="831" departSpeed="5"/>
    <vehicle id="up_308" type="car" route="up" depart="832" departSpeed="5"/>
    <vehicle id="right_309" type="car" route="right" depart="836" departSpeed="5"/>
    <vehicle id="left_310" type="car" route="left" depart="839" departSpeed="5"/>
    <vehicle id="left_311" type="car" route="left" depart="843" departSpeed="5"/>
    <vehicle id="left_312" type="car" route="left" depart="844" departSpeed="5"/>
    <vehicle id="down_313" type="car" route="down" depart="846" departSpeed="5"/>
    <vehicle id="right_314" type="car" route="right" depart="850" departSpeed="5"/>
    <vehicle id="up_315" type="car" route="up" depart="851" departSpeed="5"/>
    <vehicle id="right_316" type="car" route="right" depart="856" departSpeed="5"/>
    <vehicle id="down_317" type="car" route="down" depart="858" departSpeed="5"/>
    <vehicle id="down_318" type="car" route="down" depart="859" departSpeed="5"/>
    <vehicle id="up_319" type="car" route="up" depart="860" departSpeed="5"/>
    <vehicle id="right_320" type="car" route="right" depart="861" departSpeed="5"/>
    <vehicle id="down_321" type="car" route="down" depart="861" departSpeed="5"/>
    <vehicle id="up_322" type="car" route="up" depart="861" departSpeed="5"/>
    <vehicle id="down_323" type="car" route="down" depart="862" departSpeed="5"/>
    <vehicle id="left_324" type="car" route="left" depart="863" departSpeed="5"/>
    <vehicle id="up_325" type="car" route="up" depart="864" departSpeed="5"/>
    <vehicle id="right_326" type="car" route="right" depart="869" departSpeed="5"/>
    <vehicle id="down_327" type="car" route="down" depart="870" departSpeed="5"/>
    <vehicle id="down_328" type="car" route="down" depart="873" departSpeed="5"/>
    <vehicle id="right_329" type="car" route="right" depart="875" departSpeed="5"/>
    <vehicle id="up_330" type="car" route="up" depart="878" departSpeed="5"/>
    <vehicle id="up_331" type="car" route="up" depart="882" departSpeed="5"/>
    <vehicle id="up_332" type="car" route="up" depart="883" departSpeed="5"/>
    <vehicle id="right_333" type="car" route="right" depart="888" departSpeed="5"/>
    <vehicle id="down_334" type="car" route="down" depart="888" departSpeed="5"/>
    <vehicle id="left_335" type="car" route="left" depart="889" departSpeed="5"/>
    <vehicle id="left_336" type="car" route="left" depart="890" departSpeed="5"/>
    <vehicle id="right_337" type="car" route="right" depart="892" departSpeed="5"/>
    <vehicle id="up_338" type="car" route="up" depart="895" departSpeed="5"/>
    <vehicle id="left_339" type="car" route="left" depart="897" departSpeed="5"/>
    <vehicle id="left_340" type="car" route="left" depart="899" departSpeed="5"/>
    <vehicle id="left_341" type="car" route="left" depart="902" departSpeed="5"/>
    <vehicle id="right_342" type="car" route="right" depart="904" departSpeed="5"/>
    <vehicle id="right_343" type="car" route="right" depart="906" departSpeed="5"/>
    <vehicle id="right_344" type="car" route="right" depart="908" departSpeed="5"/>
    <vehicle id="right_345" type="car" route="right" depart="909" departSpeed="5"/>
    <vehicle id="left_346" type="car" route="left" depart="910" departSpeed="5"/>
    <vehicle id="right_347" type="car" route="right" depart="911" departSpeed="5"/>
    <vehicle id="down_348" type="car" route="down" depart="912" departSpeed="5"/>
    <vehicle id="down_349" type="car" route="down" depart="913" departSpeed="5"/>
    <vehicle id="left_350" type="car" route="left" depart="918" departSpeed="5"/>
    <vehicle id="right_351" type="car" route="right" depart="925" departSpeed="5"/>
    <vehicle id="up_352" type="car" route="up" depart="928" departSpeed="5"/>
    <vehicle id="right_353" type="car" route="right" depart="930" departSpeed="5"/>
    <vehicle id="down_354" type="car" route="down" depart="936" departSpeed="5"/>
    <vehicle id="right_355" type="car" route="right" depart="937" departSpeed="5"/>
    <vehicle id="left_356" type="car" route="left" depart="939" departSpeed="5"/>
    <vehicle id="right_357" type="car" route="right" depart="941" departSpeed="5"/>
    <vehicle id="left_358" type="car" route="left" depart="945" departSpeed="5"/>
    <vehicle id="up_359" type="car" route="up" depart="949" departSpeed="5"/>
    <vehicle id="left_360" type="car" route="left" depart="951" departSpeed="5"/>
    <vehicle id="up_361" type="car" route="up" depart="951" departSpeed="5"/>
    <vehicle id="left_362" type="car" route="left" depart="955" departSpeed="5"/>
    <vehicle id="right_363" type="car" route="right" depart="956" departSpeed="5"/>
    <vehicle id="right_364" type="car" route="right" depart="957" departSpeed="5"/>