<routes>
            <vType id="car" accel="1.0" decel="4.5" sigma="0.7" length="5" minGap="3" maxSpeed="15" guiShape="passenger"/>

            <route id="right" edges="1i 2o" />
            <route id="left" edges="2i 1o" />
            <route id="down" edges="4i 3o" />
            <route id="up" edges="3i 4o" />
    <vehicle id="up_0" type="car" route="up" depart="1" departSpeed="5"/>
    <vehicle id="down_1" type="car" route="down" depart="4" departSpeed="5"/>
    <vehicle id="left_2" type="car" route="left" depart="5" departSpeed="5"/>
    <vehicle id="up_3" type="car" route="up" depart="8" departSpeed="5"/>
    <vehicle id="up_4" type="car" route="up" depart="16" departSpeed="5"/>
    <vehicle id="up_5" type="car" route="up" depart="18" departSpeed="5"/>
    <vehicle id="left_6" type="car" route="left" depart="19" departSpeed="5"/>
    <vehicle id="up_7" type="car" route="up" depart="21" departSpeed="5"/>
    <vehicle id="left_8" type="car" route="left" depart="22" departSpeed="5"/>
    <vehicle id="up_9" type="car" route="up" depart="22" departSpeed="5"/>
    <vehicle id="up_10" type="car" route="up" depart="25" departSpeed="5"/>
    <vehicle id="down_11" type="car" route="down" depart="30" departSpeed="5"/>
    <vehicle id="up_12" type="car" route="up" depart="42" departSpeed="5"/>
    <vehicle id="up_13" type="car" route="up" depart="43" departSpeed="5"/>
    <vehicle id="down_14" type="car" route="down" depart="47" departSpeed="5"/>
    <vehicle id="down_15" type="car" route="down" depart="52" departSpeed="5"/>
    <vehicle id="right_16" type="car" route="right" depart="54" departSpeed="5"/>
    <vehicle id="left_17" type="car" route="left" depart="62" departSpeed="5"/>
    <vehicle id="down_18" type="car" route="down" depart="65" departSpeed="5"/>
    <vehicle id="left_19" type="car" route="left" depart="66" departSpeed="5"/>
    <vehicle id="down_20" type="car" route="down" depart="68" departSpeed="5"/>
    <vehicle id="left_21" type="car" route="left" depart="72" departSpeed="5"/>
    <vehicle id="up_22" type="car" route="up" depart="73" departSpeed="5"/>
    <vehicle id="up_23" type="car" route="up" depart="75" departSpeed="5"/>
    <vehicle id="left_24" type="car" route="left" depart="77" departSpeed="5"/>
    <vehicle id="left_25" type="car" route="left" depart="81" departSpeed="5"/>
    <vehicle id="down_26" type="car" route="down" depart="90" departSpeed="5"/>
    <vehicle id="left_27" type="car" route="left" depart="95" departSpeed="5"/>
    <vehicle id="up_28" type="car" route="up" depart="96" departSpeed="5"/>
    <vehicle id="up_29" type="car" route="up" depart="97" departSpeed="5"/>
    <vehicle id="right_30" type="car" route="right" depart="102" departSpeed="5"/>
    <vehicle id="left_31" type="car" route="left" depart="102" departSpeed="5"/>
    <vehicle id="up_32" type="car" route="up" depart="102" departSpeed="5"/>
    <vehicle id="right_33" type="car" route="right" depart="109" departSpeed="5"/>
    <vehicle id="up_34" type="car" route="up" depart="109" departSpeed="5"/>
    <vehicle id="up_35" type="car" route="up" depart="112" departSpeed="5"/>
    <vehicle id="left_36" type="car" route="left" depart="113" departSpeed="5"/>
    <vehicle id="up_37" type="car" route="up" depart="119" departSpeed="5"/>
    <vehicle id="left_38" type="car" route="left" depart="132" departSpeed="5"/>
    <vehicle id="down_39" type="car" route="down" depart="132" departSpeed="5"/>
    <vehicle id="down_40" type="car" route="down" depart="133" departSpeed="5"/>
    <vehicle id="down_41" type="car" route="down" depart="134" departSpeed="5"/>
    <vehicle id="up_42" type="car" route="up" depart="136" departSpeed="5"/>
    <vehicle id="left_43" type="car" route="left" depart="137" departSpeed="5"/>
    <vehicle id="up_44" type="car" route="up" depart="140" departSpeed="5"/>
    <vehicle id="up_45" type="car" route="up" depart="144" departSpeed="5"/>
    <vehicle id="up_46" type="car" route="up" depart="149" departSpeed="5"/>
    <vehicle id="right_47" type="car" route="right" depart="153" departSpeed="5"/>
    <vehicle id="down_48" type="car" route="down" depart="156" departSpeed="5"/>
    <vehicle id="left_49" type="car" route="left" depart="158" departSpeed="5"/>
    <vehicle id="right_50" type="car" route="right" depart="159" departSpeed="5"/>
    <vehicle id="down_51" type="car" route="down" depart="160" departSpeed="5"/>
    <vehicle id="left_52" type="car" route="left" depart="163" departSpeed="5"/>
    <vehicle id="down_53" type="car" route="down" depart="164" departSpeed="5"/>
    <vehicle id="down_54" type="car" route="down" depart="165" departSpeed="5"/>
    <vehicle id="right_55" type="car" route="right" depart="167" departSpeed="5"/>
    <vehicle id="up_56" type="car" route="up" depart="172" departSpeed="5"/>
    <vehicle id="left_57" type="car" route="left" depart="173" departSpeed="5"/>
    <vehicle id="down_58" type="car" route="down" depart="177" departSpeed="5"/>
    <vehicle id="left_59" type="car" route="left" depart="180" departSpeed="5"/>
    <vehicle id="left_60" type="car" route="left" depart="182" departSpeed="5"/>
    <vehicle id="left_61" type="car" route="left" depart="192" departSpeed="5"/>
    <vehicle id="up_62" type="car" route="up" depart="192" departSpeed="5"/>
    <vehicle id="right_63" type="car" route="right" depart="195" departSpeed="5"/>
    <vehicle id="down_64" type="car" route="down" depart="199" departSpeed="5"/>
    <vehicle id="up_65" type="car" route="up" depart="200" departSpeed="5"/>
    <vehicle id="up_66" type="car" route="up" depart="202" departSpeed="5"/>
    <vehicle id="left_67" type="car" route="left" depart="203" departSpeed="5"/>
    <vehicle id="down_68" type="car" route="down" depart="205" departSpeed="5"/>
    <vehicle id="right_69" type="car" route="right" depart="207" departSpeed="5"/>
    <vehicle id="up_70" type="car" route="up" depart="213" departSpeed="5"/>
    <vehicle id="right_71" type="car" route="right" depart="216" departSpeed="5"/>
    <vehicle id="right_72" type="car" route="right" depart="222" departSpeed="5"/>
    <vehicle id="left_73" type="car" route="left" depart="222" departSpeed="5"/>
    <vehicle id="up_74" type="car" route="up" depart="222" departSpeed="5"/>
    <vehicle id="left_75" type="car" route="left" depart="231" departSpeed="5"/>
    <vehicle id="left_76" type="car" route="left" depart="234" departSpeed="5"/>
    <vehicle id="up_77" type="car" route="up" depart="240" departSpeed="5"/>
    <vehicle id="right_78" type="car" route="right" depart="241" departSpeed="5"/>
    <vehicle id="right_79" type="car" route="right" depart="242" departSpeed="5"/>
    <vehicle id="right_80" type="car" route="right" depart="245" departSpeed="5"/>
    <vehicle id="up_81" type="car" route="up" depart="245" departSpeed="5"/>
    <vehicle id="left_82" type="car" route="left" depart="248" departSpeed="5"/>
    <vehicle id="down_83" type="car" route="down" depart="250" departSpeed="5"/>
    <vehicle id="up_84" type="car" route="up" depart="255" departSpeed="5"/>
    <vehicle id="right_85" type="car" route="right" depart="256" departSpeed="5"/>
    <vehicle id="left_86" type="car" route="left" depart="259" departSpeed="5"/>
    <vehicle id="right_87" type="car" route="right" depart="263" departSpeed="5"/>
    <vehicle id="up_88" type="car" route="up" depart="268" departSpeed="5"/>
    <vehicle id="left_89" type="car" route="left" depart="274" departSpeed="5"/>
    <vehicle id="up_90" type="car" route="up" depart="275" departSpeed="5"/>
    <vehicle id="right_91" type="car" route="right" depart="276" departSpeed="5"/>
    <vehicle id="up_92" type="car" route="up" depart="279" departSpeed="5"/>
    <vehicle id="right_93" type="car" route="right" depart="282" departSpeed="5"/>
    <vehicle id="down_94" type="car" route="down" depart="282" departSpeed="5"/>
    <vehicle id="up_95" type="car" route="up" depart="283" departSpeed="5"/>
    <vehicle id="down_96" type="car" route="down" depart="284" departSpeed="5"/>
    <vehicle id="left_97" type="car" route="left" depart="285" departSpeed="5"/>
    <vehicle id="down_98" type="car" route="down" depart="285" departSpeed="5"/>
    <vehicle id="up_99" type="car" route="up" depart="286" departSpeed="5"/>
    <vehicle id="right_100" type="car" route="right" depart="291" departSpeed="5"/>
    <vehicle id="down_101" type="car" route="down" depart="292" departSpeed="5"/>
    <vehicle id="up_102" type="car" route="up" depart="295" departSpeed="5"/>
    <vehicle id="down_103" type="car" route="down" depart="296" departSpeed="5"/>
    <vehicle id="left_104" type="car" route="left" depart="298" departSpeed="5"/>
    <vehicle id="right_105" type="car" route="right" depart="299" departSpeed="5"/>
    <vehicle id="left_106" type="car" route="left" depart="299" departSpeed="5"/>
    <vehicle id="right_107" type="car" route="right" depart="303" departSpeed="5"/>
    <vehicle id="down_108" type="car" route="down" depart="306" departSpeed="5"/>
    <vehicle id="up_109" type="car" route="up" depart="310" departSpeed="5"/>
    <vehicle id="down_110" type="car" route="down" depart="316" departSpeed="5"/>
    <vehicle id="left_111" type="car" route="left" depart="317" departSpeed="5"/>
    <vehicle id="down_112" type="car" route="down" depart="317" departSpeed="5"/>
    <vehicle id="up_113" type="car" route="up" depart="317" departSpeed="5"/>
    <vehicle id="up_114" type="car" route="up" depart="322" departSpeed="5"/>
    <vehicle id="right_115" type="car" route="right" depart="325" departSpeed="5"/>
    <vehicle id="up_116" type="car" route="up" depart="329" departSpeed="5"/>
    <vehicle id="down_117" type="car" route="down" depart="330" departSpeed="5"/>
    <vehicle id="right_118" type="car" route="right" depart="335" departSpeed="5"/>
    <vehicle id="up_119" type="car" route="up" depart="335" departSpeed="5"/>
    <vehicle id="down_120" type="car" route="down" depart="336" departSpeed="5"/>
    <vehicle id="down_121" type="car" route="down" depart="337" departSpeed="5"/>
    <vehicle id="left_122" type="car" route="left" depart="342" departSpeed="5"/>
    <vehicle id="right_123" type="car" route="right" depart="344" departSpeed="5"/>
    <vehicle id="right_124" type="car" route="right" depart="348" departSpeed="5"/>
    <vehicle id="up_125" type="car" route="up" depart="349" departSpeed="5"/>
    <vehicle id="up_126" type="car" route="up" depart="354" departSpeed="5"/>
    <vehicle id="down_127" type="car" route="down" depart="356" departSpeed="5"/>
    <vehicle id="down_128" type="car" route="down" depart="359" departSpeed="5"/>
    <vehicle id="up_129" type="car" route="up" depart="361" departSpeed="5"/>
    <vehicle id="left_130" type="car" route="left" depart="363" departSpeed="5"/>
    <vehicle id="down_131" type="car" route="down" depart="364" departSpeed="5"/>
    <vehicle id="up_132" type="car" route="up" depart="364" departSpeed="5"/>
    <vehicle id="left_133" type="car" route="left" depart="367" departSpeed="5"/>
    <vehicle id="up_134" type="car" route="up" depart="369" departSpeed="5"/>
    <vehicle id="left_135" type="car" route="left" depart="370" departSpeed="5"/>
    <vehicle id="down_136" type="car" route="down" depart="373" departSpeed="5"/>
    <vehicle id="up_137" type="car" route="up" depart="378" departSpeed="5"/>
    <vehicle id="down_138" type="car" route="down" depart="379" departSpeed="5"/>
    <vehicle id="left_139" type="car" route="left" depart="380" departSpeed="5"/>
    <vehicle id="right_140" type="car" route="right" depart="381" departSpeed="5"/>
    <vehicle id="right_141" type="car" route="right" depart="382" departSpeed="5"/>
    <vehicle id="down_142" type="car" route="down" depart="382" departSpeed="5"/>
    <vehicle id="right_143" type="car" route="right" depart="385" departSpeed="5"/>
    <vehicle id="left_144" type="car" route="left" depart="385" departSpeed="5"/>
    <vehicle id="up_145" type="car" route="up" depart="385" departSpeed="5"/>
    <vehicle id="left_146" type="car" route="left" depart="388" departSpeed="5"/>
    <vehicle id="down_147" type="car" route="down" depart="389" departSpeed="5"/>
    <vehicle id="right_148" type="car" route="right" depart="390" departSpeed="5"/>
    <vehicle id="right_149" type="car" route="right" depart="391" departSpeed="5"/>
    <vehicle id="up_150" type="car" route="up" depart="391" departSpeed="5"/>
    <vehicle id="left_151" type="car" route="left" depart="393" departSpeed="5"/>
    <vehicle id="down_152" type="car" route="down" depart="394" departSpeed="5"/>
    <vehicle id="left_153" type="car" route="left" depart="399" departSpeed="5"/>
    <vehicle id="left_154" type="car" route="left" depart="405" departSpeed="5"/>
    <vehicle id="right_155" type="car" route="right" depart="408" departSpeed="5"/>
    <vehicle id="down_156" type="car" route="down" depart="411" departSpeed="5"/>
    <vehicle id="right_157" type="car" route="right" depart="413" departSpeed="5"/>
    <vehicle id="down_158" type="car" route="down" depart="414" departSpeed="5"/>
    <vehicle id="down_159" type="car" route="down" depart="415" departSpeed="5"/>
    <vehicle id="down_160" type="car" route="down" depart="418" departSpeed="5"/>
    <vehicle id="up_161" type="car" route="up" depart="420" departSpeed="5"/>
    <vehicle id="down_162" type="car" route="down" depart="422" departSpeed="5"/>
    <vehicle id="down_163" type="car" route="down" depart="425" departSpeed="5"/>
    <vehicle id="up_164" type="car" route="up" depart="430" departSpeed="5"/>
    <vehicle id="left_165" type="car" route="left" depart="432" departSpeed="5"/>
    <vehicle id="left_166" type="car" route="left" depart="437" departSpeed="5"/>
    <vehicle id="right_167" type="car" route="right" depart="440" departSpeed="5"/>
    <vehicle id="down_168" type="car" route="down" depart="440" departSpeed="5"/>
    <vehicle id="right_169" type="car" route="right" depart="442" departSpeed="5"/>
    <vehicle id="left_170" type="car" route="left" depart="443" departSpeed="5"/>
    <vehicle id="down_171" type="car" route="down" depart="444" departSpeed="5"/>
    <vehicle id="up_172" type="car" route="up" depart="451" departSpeed="5"/>
    <vehicle id="right_173" type="car" route="right" depart="452" departSpeed="5"/>
    <vehicle id="left_174" type="car" route="left" depart="452" departSpeed="5"/>
    <vehicle id="down_175" type="car" route="down" depart="453" departSpeed="5"/>
    <vehicle id="left_176" type="car" route="left" depart="457" departSpeed="5"/>
    <vehicle id="left_177" type="car" route="left" depart="459" departSpeed="5"/>
    <vehicle id="up_178" type="car" route="up" depart="459" departSpeed="5"/>
    <vehicle id="right_179" type="car" route="right" depart="463" departSpeed="5"/>
    <vehicle id="up_180" type="car" route="up" depart="463" departSpeed="5"/>
    <vehicle id="right_181" type="car" route="right" depart="465" departSpeed="5"/>
    <vehicle id="right_182" type="car" route="right" depart="466" departSpeed="5"/>
    <vehicle id="left_183" type="car" route="left" depart="470" departSpeed="5"/>
    <vehicle id="right_184" type="car" route="right" depart="471" departSpeed="5"/>
    <vehicle id="up_185" type="car" route="up" depart="471" departSpeed="5"/>
    <vehicle id="down_186" type="car" route="down" depart="473" departSpeed="5"/>
    <vehicle id="down_187" type="car" route="down" depart="475" departSpeed="5"/>
    <vehicle id="up_188" type="car" route="up" depart="482" departSpeed="5"/>
    <vehicle id="up_189" type="car" route="up" depart="485" departSpeed="5"/>
    <vehicle id="down_190" type="car" route="down" depart="490" departSpeed="5"/>
    <vehicle id="up_191" type="car" route="up" depart="490" departSpeed="5"/>
    <vehicle id="right_192" type="car" route="right" depart="493" departSpeed="5"/>
    <vehicle id="up_193" type="car" route="up" depart="494" departSpeed="5"/>
    <vehicle id="down_194" type="car" route="down" depart="495" departSpeed="5"/>
    <vehicle id="left_195" type="car" route="left" depart="500" departSpeed="5"/>
    <vehicle id="left_196" type="car" route="left" depart="501" departSpeed="5"/>
    <vehicle id="down_197" type="car" route="down" depart="501" departSpeed="5"/>
    <vehicle id="right_198" type="car" route="right" depart="502" departSpeed="5"/>
    <vehicle id="down_199" type="car" route="down" depart="503" departSpeed="5"/>
    <vehicle id="up_200" type="car" route="up" depart="509" departSpeed="5"/>
    <vehicle id="left_201" type="car" route="left" depart="510" departSpeed="5"/>
    <vehicle id="left_202" type="car" route="left" depart="516" departSpeed="5"/>
    <vehicle id="down_203" type="car" route="down" depart="517" departSpeed="5"/>
    <vehicle id="left_204" type="car" route="left" depart="518" departSpeed="5"/>
    <vehicle id="right_205" type="car" route="right" depart="520" departSpeed="5"/>
    <vehicle id="left_206" type="car" route="left" depart="520" departSpeed="5"/>
    <vehicle id="down_207" type="car" route="down" depart="522" departSpeed="5"/>
    <vehicle id="right_208" type="car" route="right" depart="523" departSpeed="5"/>
    <vehicle id="left_209" type="car" route="left" depart="529" departSpeed="5"/>
    <vehicle id="right_210" type="car" route="right" depart="532" departSpeed="5"/>
    <vehicle id="up_211" type="car" route="up" depart="532" departSpeed="5"/>
    <vehicle id="right_212" type="car" route="right" depart="533" departSpeed="5"/>
    <vehicle id="left_213" type="car" route="left" depart="540" departSpeed="5"/>
    <vehicle id="left_214" type="car" route="left" depart="541" departSpeed="5"/>
    <vehicle id="left_215" type="car" route="left" depart="543" departSpeed="5"/>
    <vehicle id="down_216" type="car" route="down" depart="547" departSpeed="5"/>
    <vehicle id="up_217" type="car" route="up" depart="551" departSpeed="5"/>
    <vehicle id="down_218" type="car" route="down" depart="552" departSpeed="5"/>
    <vehicle id="right_219" type="car" route="right" depart="556" departSpeed="5"/>
    <vehicle id="down_220" type="car" route="down" depart="558" departSpeed="5"/>
    <vehicle id="down_221" type="car" route="down" depart="560" departSpeed="5"/>
    <vehicle id="left_222" type="car" route="left" depart="565" departSpeed="5"/>
    <vehicle id="left_223" type="car" route="left" depart="569" departSpeed="5"/>
    <vehicle id="down_224" type="car" route="down" depart="569" departSpeed="5"/>
    <vehicle id="down_225" type="car" route="down" depart="576" departSpeed="5"/>
    <vehicle id="right_226" type="car" route="right" depart="577" departSpeed="5"/>
    <vehicle id="up_227" type="car" route="up" depart="579" departSpeed="5"/>
    <vehicle id="right_228" type="car" route="right" depart="582" departSpeed="5"/>
    <vehicle id="up_229" type="car" route="up" depart="583" departSpeed="5"/>
    <vehicle id="down_230" type="car" route="down" depart="584" departSpeed="5"/>
    <vehicle id="down_231" type="car" route="down" depart="587" departSpeed="5"/>
    <vehicle id="up_232" type="car" route="up" depart="590" departSpeed="5"/>
    <vehicle id="left_233" type="car" route="left" depart="592" departSpeed="5"/>
    <vehicle id="right_234" type="car" route="right" depart="593" departSpeed="5"/>
    <vehicle id="down_235" type="car" route="down" depart="593" departSpeed="5"/>
    <vehicle id="right_236" type="car" route="right" depart="595" departSpeed="5"/>
    <vehicle id="right_237" type="car" route="right" depart="599" departSpeed="5"/>
    <vehicle id="down_238" type="car" route="down" depart="599" departSpeed="5"/>
    <vehicle id="up_239" type="car" route="up" depart="600" departSpeed="5"/>
    <vehicle id="down_240" type="car" route="down" depart="602" departSpeed="5"/>
    <vehicle id="up_241" type="car" route="up" depart="604" departSpeed="5"/>
    <vehicle id="down_242" type="car" route="down" depart="607" departSpeed="5"/>
    <vehicle id="right_243" type="car" route="right" depart="609" departSpeed="5"/>
    <vehicle id="up_244" type="car" route="up" depart="610" departSpeed="5"/>
    <vehicle id="left_245" type="car" route="left" depart="611" departSpeed="5"/>
    <vehicle id="down_246" type="car" route="down" depart="611" departSpeed="5"/>
    <vehicle id="down_247" type="car" route="down" depart="614" departSpeed="5"/>
    <vehicle id="up_248" type="car" route="up" depart="614" departSpeed="5"/>
    <vehicle id="left_249" type="car" route="left" depart="616" departSpeed="5"/>
    <vehicle id="down_250" type="car" route="down" depart="621" departSpeed="5"/>
    <vehicle id="right_251" type="car" route="right" depart="633" departSpeed="5"/>
    <vehicle id="left_252" type="car" route="left" depart="635" departSpeed="5"/>
    <vehicle id="up_253" type="car" route="up" depart="636" departSpeed="5"/>
    <vehicle id="down_254" type="car" route="down" depart="639" departSpeed="5"/>
    <vehicle id="right_255" type="car" route="right" depart="643" departSpeed="5"/>
    <vehicle id="right_256" type="car" route="right" depart="645" departSpeed="5"/>
    <vehicle id="right_257" type="car" route="right" depart="646" departSpeed="5"/>
    <vehicle id="down_258" type="car" route="down" depart="648" departSpeed="5"/>
    <vehicle id="right_259" type="car" route="right" depart="650" departSpeed="5"/>
    <vehicle id="left_260" type="car" route="left" depart="650" departSpeed="5"/>
    <vehicle id="down_261" type="car" route="down" depart="657" departSpeed="5"/>
    <vehicle id="left_262" type="car" route="left" depart="658" departSpeed="5"/>
    <vehicle id="left_263" type="car" route="left" depart="662" departSpeed="5"/>
    <vehicle id="up_264" type="car" route="up" depart="667" departSpeed="5"/>
    <vehicle id="right_265" type="car" route="right" depart="668" departSpeed="5"/>
    <vehicle id="left_266" type="car" route="left" depart="670" departSpeed="5"/>
    <vehicle id="up_267" type="car" route="up" depart="671" departSpeed="5"/>
    <vehicle id="down_268" type="car" route="down" depart="672" departSpeed="5"/>
    <vehicle id="down_269" type="car" route="down" depart="673" departSpeed="5"/>
    <vehicle id="right_270" type="car" route="right" depart="675" departSpeed="5"/>
    <vehicle id="down_271" type="car" route="down" depart="676" departSpeed="5"/>
    <vehicle id="down_272" type="car" route="down" depart="677" departSpeed="5"/>
    <vehicle id="left_273" type="car" route="left" depart="678" departSpeed="5"/>
    <vehicle id="down_274" type="car" route="down" depart="678" departSpeed="5"/>
    <vehicle id="right_275" type="car" route="right" depart="680" departSpeed="5"/>
    <vehicle id="down_276" type="car" route="down" depart="681" departSpeed="5"/>
    <vehicle id="down_277" type="car" route="down" depart="686" departSpeed="5"/>
    <vehicle id="up_278" type="car" route="up" depart="688" departSpeed="5"/>
    <vehicle id="left_279" type="car" route="left" depart="694" departSpeed="5"/>
    <vehicle id="down_280" type="car" route="down" depart="698" departSpeed="5"/>
    <vehicle id="up_281" type="car" route="up" depart="701" departSpeed="5"/>
    <vehicle id="up_282" type="car" route="up" depart="705" departSpeed="5"/>
    <vehicle id="down_283" type="car" route="down" depart="710" departSpeed="5"/>
    <vehicle id="down_284" type="car" route="down" depart="713" departSpeed="5"/>
    <vehicle id="right_285" type="car" route="right" depart="714" departSpeed="5"/>
    <vehicle id="left_286" type="car" route="left" depart="714" departSpeed="5"/>
    <vehicle id="right_287" type="car" route="right" depart="715" departSpeed="5"/>
    <vehicle id="up_288" type="car" route="up" depart="715" departSpeed="5"/>
    <vehicle id="left_289" type="car" route="left" depart="719" departSpeed="5"/>
    <vehicle id="left_290" type="car" route="left" depart="720" departSpeed="5"/>
    <vehicle id="up_291" type="car" route="up" depart="722" departSpeed="5"/>
    <vehicle id="right_292" type="car" route="right" depart="724" departSpeed="5"/>
    <vehicle id="up_293" type="car" route="up" depart="724" departSpeed="5"/>
    <vehicle id="down_294" type="car" route="down" depart="733" departSpeed="5"/>
    <vehicle id="left_295" type="car" route="left" depart="736" departSpeed="5"/>
    <vehicle id="right_296" type="car" route="right" depart="738" departSpeed="5"/>
    <vehicle id="right_297" type="car" route="right" depart="743" departSpeed="5"/>
    <vehicle id="up_298" type="car" route="up" depart="746" departSpeed="5"/>
    <vehicle id="up_299" type="car" route="up" depart="749" departSpeed="5"/>
    <vehicle id="right_300" type="car" route="right" depart="754" departSpeed="5"/>
    <vehicle id="left_301" type="car" route="left" depart="755" departSpeed="5"/>
    <vehicle id="up_302" type="car" route="up" depart="757" departSpeed="5"/>
    <vehicle id="right_303" type="car" route="right" depart="762" departSpeed="5"/>
    <vehicle id="left_304" type="car" route="left" depart="765" departSpeed="5"/>
    <vehicle id="right_305" type="car" route="right" depart="767" departSpeed="5"/>
    <vehicle id="left_306" type="car" route="left" depart="769" departSpeed="5"/>
    <vehicle id="up_307" type="car" route="up" depart="770" departSpeed="5"/>
    <vehicle id="left_308" type="car" route="left" depart="771" departSpeed="5"/>
    <vehicle id="left_309" type="car" route="left" depart="772" departSpeed="5"/>
    <vehicle id="left_310" type="car" route="left" depart="775" departSpeed="5"/>
    <vehicle id="down_311" type="car" route="down" depart="775" departSpeed="5"/>
    <vehicle id="down_312" type="car" route="down" depart="777" departSpeed="5"/>
    <vehicle id="up_313" type="car" route="up" depart="780" departSpeed="5"/>
    <vehicle id="left_314" type="car" route="left" depart="793" departSpeed="5"/>
    <vehicle id="down_315" type="car" route="down" depart="794" departSpeed="5"/>
    <vehicle id="down_316" type="car" route="down" depart="796" departSpeed="5"/>
    <vehicle id="up_317" type="car" route="up" depart="798" departSpeed="5"/>
    <vehicle id="right_318" type="car" route="right" depart="801" departSpeed="5"/>
    <vehicle id="right_319" type="car" route="right" depart="802" departSpeed="5"/>
    <vehicle id="right_320" type="car" route="right" depart="813" departSpeed="5"/>
    <vehicle id="down_321" type="car" route="down" depart="814" departSpeed="5"/>
    <vehicle id="left_322" type="car" route="left" depart="817" departSpeed="5"/>
    <vehicle id="left_323" type="car" route="left" depart="818" departSpeed="5"/>
    <vehicle id="down_324" type="car" route="down" depart="818" departSpeed="5"/>
    <vehicle id="right_325" type="car" route="right" depart="822" departSpeed="5"/>
    <vehicle id="up_326" type="car" route="up" depart="822" departSpeed="5"/>
    <vehicle id="down_327" type="car" route="down" depart="823" departSpeed="5"/>
    <vehicle id="down_328" type="car" route="down" depart="825" departSpeed="5"/>
    <vehicle id="down_329" type="car" route="down" depart="826" departSpeed="5"/>
    <vehicle id="left_330" type="car" route="left" depart="830" departSpeed="5"/>
    <vehicle id="up_331" type="car" route="up" depart="833" departSpeed="5"/>
    <vehicle id="left_332" type="car" route="left" depart="839" departSpeed="5"/>
    <vehicle id="left_333" type="car" route="left" depart="844" departSpeed="5"/>
    <vehicle id="up_334" type="car" route="up" depart="849" departSpeed="5"/>
    <vehicle id="left_335" type="car" route="left" depart="851" departSpeed="5"/>
    <vehicle id="right_336" type="car" route="right" depart="852" departSpeed="5"/>
    <vehicle id="right_337" type="car" route="right" depart="854" departSpeed="5"/>
    <vehicle id="left_338" type="car" route="left" depart="854" departSpeed="5"/>
    <vehicle id="up_339" type="car" route="up" depart="854" departSpeed="5"/>
    <vehicle id="up_340" type="car" route="up" depart="858" departSpeed="5"/>
    <vehicle id="right_341" type="car" route="right" depart="869" departSpeed="5"/>
    <vehicle id="down_342" type="car" route="down" depart="869" departSpeed="5"/>
    <vehicle id="right_343" type="car" route="right" depart="871" departSpeed="5"/>
    <vehicle id="right_344" type="car" route="right" depart="874" departSpeed="5"/>
    <vehicle id="down_345" type="car" route="down" depart="874" departSpeed="5"/>
    <vehicle id="up_346" type="car" route="up" depart="874" departSpeed="5"/>
    <vehicle id="left_347" type="car" route="left" depart="875" departSpeed="5"/>
    <vehicle id="down_348" type="car" route="down" depart="875" departSpeed="5"/>
    <vehicle id="down_349" type="car" route="down" depart="880" departSpeed="5"/>
    <vehicle id="up_350" type="car" route="up" depart="880" departSpeed="5"/>
    <vehicle id="left_351" type="car" route="left" depart="882" departSpeed="5"/>
    <vehicle id="down_352" type="car" route="down" depart="882" departSpeed="5"/>
    <vehicle id="right_353" type="car" route="right" depart="885" departSpeed="5"/>
    <vehicle id="down_354" type="car" route="down" depart="888" departSpeed="5"/>
    <vehicle id="up_355" type="car" route="up" depart="888" departSpeed="5"/>
    <vehicle id="left_356" type="car" route="left" depart="889" departSpeed="5"/>
    <vehicle id="down_357" type="car" route="down" depart="891" departSpeed="5"/>
    <vehicle id="right_358" type="car" route="right" depart="893" departSpeed="5"/>
    <vehicle id="down_359" type="car" route="down" depart="905" departSpeed="5"/>
    <vehicle id="down_360" type="car" route="down" depart="909" departSpeed="5"/>
    <vehicle id="up_361" type="car" route="up" depart="911" departSpeed="5"/>
    <vehicle id="down_362" type="car" route="down" depart="914" departSpeed="5"/>
    <vehicle id="down_363" type="car" route="down" depart="920" departSpeed="5"/>
    <vehicle id="up_364" type="car" route="up" depart="923" departSpeed="5"/>
    <vehicle id="down_365" type="car" route="down" depart="924" departSpeed="5"/>