<?xml version="1.0" encoding="UTF-8"?>

<!-- generated on Thu Jul 12 19:56:11 2018 by SUMO netconvert Version 0.32.0
<?xml version="1.0" encoding="UTF-8"?>

<configuration xmlns:xsi="http://www.w3.org/2001/XMLSchema-instance" xsi:noNamespaceSchemaLocation="http://sumo.dlr.de/xsd/netconvertConfiguration.xsd">

    <input>
        <node-files value="cross.nod.xml"/>
        <edge-files value="cross.edg.xml"/>
    </input>

    <output>
        <output-file value="cross.net.xml"/>
    </output>

</configuration>
-->

<net version="0.27" xmlns:xsi="http://www.w3.org/2001/XMLSchema-instance" xsi:noNamespaceSchemaLocation="http://sumo.dlr.de/xsd/net_file.xsd">

    <location netOffset="128.00,128.00" convBoundary="0.00,0.00,256.00,256.00" origBoundary="-128.00,-128.00,128.00,128.00" projParameter="!"/>

    <edge id=":0_0" function="internal">
        <lane id=":0_0_0" index="0" speed="15.00" length="5.00" shape="123.05,136.05 122.86,134.69 122.27,133.72 121.31,133.14 119.95,132.95"/>
    </edge>
    <edge id=":0_1" function="internal">
        <lane id=":0_1_0" index="0" speed="15.00" length="16.10" shape="123.05,136.05 123.05,119.95"/>
        <lane id=":0_1_1" index="1" speed="15.00" length="16.10" shape="126.35,136.05 126.35,119.95"/>
    </edge>
    <edge id=":0_3" function="internal">
        <lane id=":0_3_0" index="0" speed="15.00" length="6.41" shape="126.35,136.05 126.96,131.81 128.05,129.98"/>
    </edge>
    <edge id=":0_4" function="internal">
        <lane id=":0_4_0" index="0" speed="15.00" length="2.41" shape="126.35,136.05 127.17,134.81 128.00,134.40"/>
    </edge>
    <edge id=":0_20" function="internal">
        <lane id=":0_20_0" index="0" speed="15.00" length="9.23" shape="128.05,129.98 128.77,128.78 131.81,126.96 136.05,126.35"/>
    </edge>
    <edge id=":0_21" function="internal">
        <lane id=":0_21_0" index="0" speed="15.00" length="2.41" shape="128.00,134.40 128.83,134.81 129.65,136.05"/>
    </edge>
    <edge id=":0_5" function="internal">
        <lane id=":0_5_0" index="0" speed="15.00" length="5.00" shape="136.05,132.95 134.69,133.14 133.72,133.72 133.14,134.69 132.95,136.05"/>
    </edge>
    <edge id=":0_6" function="internal">
        <lane id=":0_6_0" index="0" speed="15.00" length="16.10" shape="136.05,132.95 119.95,132.95"/>
        <lane id=":0_6_1" index="1" speed="15.00" length="16.10" shape="136.05,129.65 119.95,129.65"/>
    </edge>
    <edge id=":0_8" function="internal">
        <lane id=":0_8_0" index="0" speed="15.00" length="6.41" shape="136.05,129.65 131.81,129.04 129.98,127.95"/>
    </edge>
    <edge id=":0_9" function="internal">
        <lane id=":0_9_0" index="0" speed="15.00" length="2.41" shape="136.05,129.65 134.81,128.83 134.40,128.00"/>
    </edge>
    <edge id=":0_22" function="internal">
        <lane id=":0_22_0" index="0" speed="15.00" length="9.23" shape="129.98,127.95 128.78,127.23 126.96,124.19 126.35,119.95"/>
    </edge>
    <edge id=":0_23" function="internal">
        <lane id=":0_23_0" index="0" speed="15.00" length="2.41" shape="134.40,128.00 134.81,127.17 136.05,126.35"/>
    </edge>
    <edge id=":0_10" function="internal">
        <lane id=":0_10_0" index="0" speed="15.00" length="5.00" shape="132.95,119.95 133.14,121.31 133.72,122.27 134.69,122.86 136.05,123.05"/>
    </edge>
    <edge id=":0_11" function="internal">
        <lane id=":0_11_0" index="0" speed="15.00" length="16.10" shape="132.95,119.95 132.95,136.05"/>
        <lane id=":0_11_1" index="1" speed="15.00" length="16.10" shape="129.65,119.95 129.65,136.05"/>
    </edge>
    <edge id=":0_13" function="internal">
        <lane id=":0_13_0" index="0" speed="15.00" length="6.41" shape="129.65,119.95 129.04,124.19 127.95,126.02"/>
    </edge>
    <edge id=":0_14" function="internal">
        <lane id=":0_14_0" index="0" speed="15.00" length="2.41" shape="129.65,119.95 128.83,121.19 128.00,121.60"/>
    </edge>
    <edge id=":0_24" function="internal">
        <lane id=":0_24_0" index="0" speed="15.00" length="9.23" shape="127.95,126.02 127.23,127.22 124.19,129.04 119.95,129.65"/>
    </edge>
    <edge id=":0_25" function="internal">
        <lane id=":0_25_0" index="0" speed="15.00" length="2.41" shape="128.00,121.60 127.17,121.19 126.35,119.95"/>
    </edge>
    <edge id=":0_15" function="internal">
        <lane id=":0_15_0" index="0" speed="15.00" length="5.00" shape="119.95,123.05 121.31,122.86 122.27,122.27 122.86,121.31 123.05,119.95"/>
    </edge>
    <edge id=":0_16" function="internal">
        <lane id=":0_16_0" index="0" speed="15.00" length="16.10" shape="119.95,123.05 136.05,123.05"/>
        <lane id=":0_16_1" index="1" speed="15.00" length="16.10" shape="119.95,126.35 136.05,126.35"/>
    </edge>
    <edge id=":0_18" function="internal">
        <lane id=":0_18_0" index="0" speed="15.00" length="6.41" shape="119.95,126.35 124.19,126.96 126.02,128.05"/>
    </edge>
    <edge id=":0_19" function="internal">
        <lane id=":0_19_0" index="0" speed="15.00" length="2.41" shape="119.95,126.35 121.19,127.17 121.60,128.00"/>
    </edge>
    <edge id=":0_26" function="internal">
        <lane id=":0_26_0" index="0" speed="15.00" length="9.23" shape="126.02,128.05 127.22,128.77 129.04,131.81 129.65,136.05"/>
    </edge>
    <edge id=":0_27" function="internal">
        <lane id=":0_27_0" index="0" speed="15.00" length="2.41" shape="121.60,128.00 121.19,128.83 119.95,129.65"/>
    </edge>
    <edge id=":1_0" function="internal">
        <lane id=":1_0_0" index="0" speed="15.00" length="4.82" shape="-0.00,129.65 -1.24,128.83 -1.65,128.00 -1.24,127.17 -0.00,126.35"/>
    </edge>
    <edge id=":2_0" function="internal">
        <lane id=":2_0_0" index="0" speed="15.00" length="4.82" shape="256.00,126.35 257.24,127.17 257.65,128.00 257.24,128.83 256.00,129.65"/>
    </edge>
    <edge id=":3_0" function="internal">
        <lane id=":3_0_0" index="0" speed="15.00" length="4.82" shape="126.35,-0.00 127.17,-1.24 128.00,-1.65 128.82,-1.24 129.65,-0.00"/>
    </edge>
    <edge id=":4_0" function="internal">
        <lane id=":4_0_0" index="0" speed="15.00" length="4.82" shape="129.65,256.00 128.83,257.24 128.00,257.65 127.17,257.24 126.35,256.00"/>
    </edge>

    <edge id="1i" from="1" to="0" priority="50">
        <lane id="1i_0" index="0" speed="15.00" length="119.95" shape="-0.00,123.05 119.95,123.05"/>
        <lane id="1i_1" index="1" speed="15.00" length="119.95" shape="-0.00,126.35 119.95,126.35"/>
    </edge>
    <edge id="1o" from="0" to="1" priority="50">
        <lane id="1o_0" index="0" speed="15.00" length="119.95" shape="119.95,132.95 -0.00,132.95"/>
        <lane id="1o_1" index="1" speed="15.00" length="119.95" shape="119.95,129.65 -0.00,129.65"/>
    </edge>
    <edge id="2i" from="2" to="0" priority="50">
        <lane id="2i_0" index="0" speed="15.00" length="119.95" shape="256.00,132.95 136.05,132.95"/>
        <lane id="2i_1" index="1" speed="15.00" length="119.95" shape="256.00,129.65 136.05,129.65"/>
    </edge>
    <edge id="2o" from="0" to="2" priority="50">
        <lane id="2o_0" index="0" speed="15.00" length="119.95" shape="136.05,123.05 256.00,123.05"/>
        <lane id="2o_1" index="1" speed="15.00" length="119.95" shape="136.05,126.35 256.00,126.35"/>
    </edge>
    <edge id="3i" from="3" to="0" priority="50">
        <lane id="3i_0" index="0" speed="15.00" length="119.95" shape="132.95,-0.00 132.95,119.95"/>
        <lane id="3i_1" index="1" speed="15.00" length="119.95" shape="129.65,-0.00 129.65,119.95"/>
    </edge>
    <edge id="3o" from="0" to="3" priority="50">
        <lane id="3o_0" index="0" speed="15.00" length="119.95" shape="123.05,119.95 123.05,-0.00"/>
        <lane id="3o_1" index="1" speed="15.00" length="119.95" shape="126.35,119.95 126.35,-0.00"/>
    </edge>
    <edge id="4i" from="4" to="0" priority="50">
        <lane id="4i_0" index="0" speed="15.00" length="119.95" shape="123.05,256.00 123.05,136.05"/>
        <lane id="4i_1" index="1" speed="15.00" length="119.95" shape="126.35,256.00 126.35,136.05"/>
    </edge>
    <edge id="4o" from="0" to="4" priority="50">
        <lane id="4o_0" index="0" speed="15.00" length="119.95" shape="132.95,136.05 132.95,256.00"/>
        <lane id="4o_1" index="1" speed="15.00" length="119.95" shape="129.65,136.05 129.65,256.00"/>
    </edge>

    <tlLogic id="0" type="static" programID="0" offset="0">
        <phase duration="33" state="GGGggrrrrrGGGggrrrrr"/>
        <phase duration="3" state="yyyggrrrrryyyggrrrrr"/>
        <phase duration="6" state="rrrGGrrrrrrrrGGrrrrr"/>
        <phase duration="3" state="rrryyrrrrrrrryyrrrrr"/>
        <phase duration="33" state="rrrrrGGGggrrrrrGGGgg"/>
        <phase duration="3" state="rrrrryyyggrrrrryyygg"/>
        <phase duration="6" state="rrrrrrrrGGrrrrrrrrGG"/>
        <phase duration="3" state="rrrrrrrryyrrrrrrrryy"/>
    </tlLogic>

    <junction id="0" type="traffic_light" x="128.00" y="128.00" incLanes="4i_0 4i_1 2i_0 2i_1 3i_0 3i_1 1i_0 1i_1" intLanes=":0_0_0 :0_1_0 :0_1_1 :0_20_0 :0_21_0 :0_5_0 :0_6_0 :0_6_1 :0_22_0 :0_23_0 :0_10_0 :0_11_0 :0_11_1 :0_24_0 :0_25_0 :0_15_0 :0_16_0 :0_16_1 :0_26_0 :0_27_0" shape="121.45,136.05 134.55,136.05 136.05,134.55 136.05,121.45 134.55,119.95 121.45,119.95 119.95,121.45 119.95,134.55">
        <request index="0" response="00000000000000000000" foes="10000010000011000000" cont="0"/>
        <request index="1" response="00000000000000000000" foes="01111110000111000000" cont="0"/>
        <request index="2" response="00000000000000000000" foes="01111110000111000000" cont="0"/>
        <request index="3" response="00000001110000000000" foes="01110001111111000000" cont="1"/>
        <request index="4" response="01000001100000100000" foes="01000001100000100000" cont="1"/>
        <request index="5" response="00000001100000000000" foes="01000001100000010000" cont="0"/>
        <request index="6" response="00000011100000001111" foes="11000011100000001111" cont="0"/>
        <request index="7" response="00000011100000001111" foes="11000011100000001111" cont="0"/>
        <request index="8" response="00111011100000001110" foes="00111111100000001110" cont="1"/>
        <request index="9" response="00110000010000001000" foes="00110000010000001000" cont="1"/>
        <request index="10" response="00000000000000000000" foes="00110000001000001000" cont="0"/>
        <request index="11" response="00000000000000000000" foes="01110000000111111000" cont="0"/>
        <request index="12" response="00000000000000000000" foes="01110000000111111000" cont="0"/>
        <request index="13" response="00000000000000000111" foes="11110000000111000111" cont="1"/>
        <request index="14" response="00001000000100000110" foes="00001000000100000110" cont="1"/>
        <request index="15" response="00000000000000000110" foes="00000100000100000110" cont="0"/>
        <request index="16" response="00000011110000001110" foes="00000011111100001110" cont="0"/>
        <request index="17" response="00000011110000001110" foes="00000011111100001110" cont="0"/>
        <request index="18" response="00000011100011101110" foes="00000011100011111110" cont="1"/>
        <request index="19" response="00000010000011000001" foes="00000010000011000001" cont="1"/>
    </junction>
    <junction id="1" type="priority" x="0.00" y="128.00" incLanes="1o_0 1o_1" intLanes=":1_0_0" shape="-0.00,127.95 -0.00,134.55 -0.00,128.05">
        <request index="0" response="0" foes="0" cont="0"/>
    </junction>
    <junction id="2" type="priority" x="256.00" y="128.00" incLanes="2o_0 2o_1" intLanes=":2_0_0" shape="256.00,128.05 256.00,121.45 256.00,127.95">
        <request index="0" response="0" foes="0" cont="0"/>
    </junction>
    <junction id="3" type="priority" x="128.00" y="0.00" incLanes="3o_0 3o_1" intLanes=":3_0_0" shape="128.05,-0.00 121.45,-0.00 127.95,-0.00">
        <request index="0" response="0" foes="0" cont="0"/>
    </junction>
    <junction id="4" type="priority" x="128.00" y="256.00" incLanes="4o_0 4o_1" intLanes=":4_0_0" shape="127.95,256.00 134.55,256.00 128.05,256.00">
        <request index="0" response="0" foes="0" cont="0"/>
    </junction>

    <junction id=":0_20_0" type="internal" x="128.05" y="129.98" incLanes=":0_3_0 3i_0 3i_1" intLanes=":0_6_0 :0_6_1 :0_8_0 :0_9_0 :0_10_0 :0_11_0 :0_11_1 :0_16_0 :0_16_1 :0_18_0"/>
    <junction id=":0_21_0" type="internal" x="128.00" y="134.40" incLanes=":0_4_0 1i_1 2i_0 3i_0 3i_1" intLanes=":0_5_0 :0_11_0 :0_11_1 :0_18_0"/>
    <junction id=":0_22_0" type="internal" x="129.98" y="127.95" incLanes=":0_8_0 1i_0 1i_1" intLanes=":0_1_0 :0_1_1 :0_3_0 :0_11_0 :0_11_1 :0_13_0 :0_14_0 :0_15_0 :0_16_0 :0_16_1"/>
    <junction id=":0_23_0" type="internal" x="134.40" y="128.00" incLanes=":0_9_0 1i_0 1i_1 3i_0 4i_1" intLanes=":0_3_0 :0_10_0 :0_16_0 :0_16_1"/>
    <junction id=":0_24_0" type="internal" x="127.95" y="126.02" incLanes=":0_13_0 4i_0 4i_1" intLanes=":0_0_0 :0_1_0 :0_1_1 :0_6_0 :0_6_1 :0_8_0 :0_16_0 :0_16_1 :0_18_0 :0_19_0"/>
    <junction id=":0_25_0" type="internal" x="128.00" y="121.60" incLanes=":0_14_0 1i_0 2i_1 4i_0 4i_1" intLanes=":0_1_0 :0_1_1 :0_8_0 :0_15_0"/>
    <junction id=":0_26_0" type="internal" x="126.02" y="128.05" incLanes=":0_18_0 2i_0 2i_1" intLanes=":0_1_0 :0_1_1 :0_3_0 :0_4_0 :0_5_0 :0_6_0 :0_6_1 :0_11_0 :0_11_1 :0_13_0"/>
    <junction id=":0_27_0" type="internal" x="121.60" y="128.00" incLanes=":0_19_0 2i_0 2i_1 3i_1 4i_0" intLanes=":0_0_0 :0_6_0 :0_6_1 :0_13_0"/>

    <connection from="1i" to="3o" fromLane="0" toLane="0" via=":0_15_0" tl="0" linkIndex="15" dir="r" state="o"/>
    <connection from="1i" to="2o" fromLane="0" toLane="0" via=":0_16_0" tl="0" linkIndex="16" dir="s" state="o"/>
    <connection from="1i" to="2o" fromLane="1" toLane="1" via=":0_16_1" tl="0" linkIndex="17" dir="s" state="o"/>
    <connection from="1i" to="4o" fromLane="1" toLane="1" via=":0_18_0" tl="0" linkIndex="18" dir="l" state="o"/>
    <connection from="1i" to="1o" fromLane="1" toLane="1" via=":0_19_0" tl="0" linkIndex="19" dir="t" state="o"/>
    <connection from="1o" to="1i" fromLane="1" toLane="1" via=":1_0_0" dir="t" state="M"/>
    <connection from="2i" to="4o" fromLane="0" toLane="0" via=":0_5_0" tl="0" linkIndex="5" dir="r" state="o"/>
    <connection from="2i" to="1o" fromLane="0" toLane="0" via=":0_6_0" tl="0" linkIndex="6" dir="s" state="o"/>
    <connection from="2i" to="1o" fromLane="1" toLane="1" via=":0_6_1" tl="0" linkIndex="7" dir="s" state="o"/>
    <connection from="2i" to="3o" fromLane="1" toLane="1" via=":0_8_0" tl="0" linkIndex="8" dir="l" state="o"/>
    <connection from="2i" to="2o" fromLane="1" toLane="1" via=":0_9_0" tl="0" linkIndex="9" dir="t" state="o"/>
    <connection from="2o" to="2i" fromLane="1" toLane="1" via=":2_0_0" dir="t" state="M"/>
    <connection from="3i" to="2o" fromLane="0" toLane="0" via=":0_10_0" tl="0" linkIndex="10" dir="r" state="o"/>
    <connection from="3i" to="4o" fromLane="0" toLane="0" via=":0_11_0" tl="0" linkIndex="11" dir="s" state="o"/>
    <connection from="3i" to="4o" fromLane="1" toLane="1" via=":0_11_1" tl="0" linkIndex="12" dir="s" state="o"/>
    <connection from="3i" to="1o" fromLane="1" toLane="1" via=":0_13_0" tl="0" linkIndex="13" dir="l" state="o"/>
    <connection from="3i" to="3o" fromLane="1" toLane="1" via=":0_14_0" tl="0" linkIndex="14" dir="t" state="o"/>
    <connection from="3o" to="3i" fromLane="1" toLane="1" via=":3_0_0" dir="t" state="M"/>
    <connection from="4i" to="1o" fromLane="0" toLane="0" via=":0_0_0" tl="0" linkIndex="0" dir="r" state="o"/>
    <connection from="4i" to="3o" fromLane="0" toLane="0" via=":0_1_0" tl="0" linkIndex="1" dir="s" state="o"/>
    <connection from="4i" to="3o" fromLane="1" toLane="1" via=":0_1_1" tl="0" linkIndex="2" dir="s" state="o"/>
    <connection from="4i" to="2o" fromLane="1" toLane="1" via=":0_3_0" tl="0" linkIndex="3" dir="l" state="o"/>
    <connection from="4i" to="4o" fromLane="1" toLane="1" via=":0_4_0" tl="0" linkIndex="4" dir="t" state="o"/>
    <connection from="4o" to="4i" fromLane="1" toLane="1" via=":4_0_0" dir="t" state="M"/>

    <connection from=":0_0" to="1o" fromLane="0" toLane="0" dir="r" state="M"/>
    <connection from=":0_1" to="3o" fromLane="0" toLane="0" dir="s" state="M"/>
    <connection from=":0_1" to="3o" fromLane="1" toLane="1" dir="s" state="M"/>
    <connection from=":0_3" to="2o" fromLane="0" toLane="1" via=":0_20_0" dir="l" state="m"/>
    <connection from=":0_20" to="2o" fromLane="0" toLane="1" dir="l" state="M"/>
    <connection from=":0_4" to="4o" fromLane="0" toLane="1" via=":0_21_0" dir="t" state="m"/>
    <connection from=":0_21" to="4o" fromLane="0" toLane="1" dir="t" state="M"/>
    <connection from=":0_5" to="4o" fromLane="0" toLane="0" dir="r" state="M"/>
    <connection from=":0_6" to="1o" fromLane="0" toLane="0" dir="s" state="M"/>
    <connection from=":0_6" to="1o" fromLane="1" toLane="1" dir="s" state="M"/>
    <connection from=":0_8" to="3o" fromLane="0" toLane="1" via=":0_22_0" dir="l" state="m"/>
    <connection from=":0_22" to="3o" fromLane="0" toLane="1" dir="l" state="M"/>
    <connection from=":0_9" to="2o" fromLane="0" toLane="1" via=":0_23_0" dir="t" state="m"/>
    <connection from=":0_23" to="2o" fromLane="0" toLane="1" dir="t" state="M"/>
    <connection from=":0_10" to="2o" fromLane="0" toLane="0" dir="r" state="M"/>
    <connection from=":0_11" to="4o" fromLane="0" toLane="0" dir="s" state="M"/>
    <connection from=":0_11" to="4o" fromLane="1" toLane="1" dir="s" state="M"/>
    <connection from=":0_13" to="1o" fromLane="0" toLane="1" via=":0_24_0" dir="l" state="m"/>
    <connection from=":0_24" to="1o" fromLane="0" toLane="1" dir="l" state="M"/>
    <connection from=":0_14" to="3o" fromLane="0" toLane="1" via=":0_25_0" dir="t" state="m"/>
    <connection from=":0_25" to="3o" fromLane="0" toLane="1" dir="t" state="M"/>
    <connection from=":0_15" to="3o" fromLane="0" toLane="0" dir="r" state="M"/>
    <connection from=":0_16" to="2o" fromLane="0" toLane="0" dir="s" state="M"/>
    <connection from=":0_16" to="2o" fromLane="1" toLane="1" dir="s" state="M"/>
    <connection from=":0_18" to="4o" fromLane="0" toLane="1" via=":0_26_0" dir="l" state="m"/>
    <connection from=":0_26" to="4o" fromLane="0" toLane="1" dir="l" state="M"/>
    <connection from=":0_19" to="1o" fromLane="0" toLane="1" via=":0_27_0" dir="t" state="m"/>
    <connection from=":0_27" to="1o" fromLane="0" toLane="1" dir="t" state="M"/>
    <connection from=":1_0" to="1i" fromLane="0" toLane="1" dir="t" state="M"/>
    <connection from=":2_0" to="2i" fromLane="0" toLane="1" dir="t" state="M"/>
    <connection from=":3_0" to="3i" fromLane="0" toLane="1" dir="t" state="M"/>
    <connection from=":4_0" to="4i" fromLane="0" toLane="1" dir="t" state="M"/>

</net>
