<routes>
            <vType id="car" accel="1.0" decel="4.5" sigma="0.7" length="5" minGap="3" maxSpeed="15" guiShape="passenger"/>

            <route id="right" edges="1i 2o" />
            <route id="left" edges="2i 1o" />
            <route id="down" edges="4i 3o" />
            <route id="up" edges="3i 4o" />
    <vehicle id="left_0" type="car" route="left" depart="0" departSpeed="5"/>
    <vehicle id="up_1" type="car" route="up" depart="0" departSpeed="5"/>
    <vehicle id="down_2" type="car" route="down" depart="1" departSpeed="5"/>
    <vehicle id="up_3" type="car" route="up" depart="1" departSpeed="5"/>
    <vehicle id="right_4" type="car" route="right" depart="3" departSpeed="5"/>
    <vehicle id="up_5" type="car" route="up" depart="4" departSpeed="5"/>
    <vehicle id="right_6" type="car" route="right" depart="5" departSpeed="5"/>
    <vehicle id="left_7" type="car" route="left" depart="5" departSpeed="5"/>
    <vehicle id="down_8" type="car" route="down" depart="5" departSpeed="5"/>
    <vehicle id="left_9" type="car" route="left" depart="9" departSpeed="5"/>
    <vehicle id="right_10" type="car" route="right" depart="10" departSpeed="5"/>
    <vehicle id="down_11" type="car" route="down" depart="11" departSpeed="5"/>
    <vehicle id="down_12" type="car" route="down" depart="14" departSpeed="5"/>
    <vehicle id="up_13" type="car" route="up" depart="18" departSpeed="5"/>
    <vehicle id="right_14" type="car" route="right" depart="21" departSpeed="5"/>
    <vehicle id="down_15" type="car" route="down" depart="23" departSpeed="5"/>
    <vehicle id="down_16" type="car" route="down" depart="24" departSpeed="5"/>
    <vehicle id="up_17" type="car" route="up" depart="24" departSpeed="5"/>
    <vehicle id="down_18" type="car" route="down" depart="25" departSpeed="5"/>
    <vehicle id="up_19" type="car" route="up" depart="27" departSpeed="5"/>
    <vehicle id="up_20" type="car" route="up" depart="29" departSpeed="5"/>
    <vehicle id="right_21" type="car" route="right" depart="30" departSpeed="5"/>
    <vehicle id="left_22" type="car" route="left" depart="30" departSpeed="5"/>
    <vehicle id="right_23" type="car" route="right" depart="35" departSpeed="5"/>
    <vehicle id="left_24" type="car" route="left" depart="35" departSpeed="5"/>
    <vehicle id="down_25" type="car" route="down" depart="36" departSpeed="5"/>
    <vehicle id="up_26" type="car" route="up" depart="37" departSpeed="5"/>
    <vehicle id="up_27" type="car" route="up" depart="39" departSpeed="5"/>
    <vehicle id="left_28" type="car" route="left" depart="41" departSpeed="5"/>
    <vehicle id="up_29" type="car" route="up" depart="42" departSpeed="5"/>
    <vehicle id="down_30" type="car" route="down" depart="50" departSpeed="5"/>
    <vehicle id="right_31" type="car" route="right" depart="51" departSpeed="5"/>
    <vehicle id="down_32" type="car" route="down" depart="52" departSpeed="5"/>
    <vehicle id="down_33" type="car" route="down" depart="53" departSpeed="5"/>
    <vehicle id="left_34" type="car" route="left" depart="54" departSpeed="5"/>
    <vehicle id="right_35" type="car" route="right" depart="59" departSpeed="5"/>
    <vehicle id="down_36" type="car" route="down" depart="59" departSpeed="5"/>
    <vehicle id="right_37" type="car" route="right" depart="60" departSpeed="5"/>
    <vehicle id="down_38" type="car" route="down" depart="70" departSpeed="5"/>
    <vehicle id="right_39" type="car" route="right" depart="72" departSpeed="5"/>
    <vehicle id="up_40" type="car" route="up" depart="72" departSpeed="5"/>
    <vehicle id="left_41" type="car" route="left" depart="73" departSpeed="5"/>
    <vehicle id="right_42" type="car" route="right" depart="77" departSpeed="5"/>
    <vehicle id="left_43" type="car" route="left" depart="79" departSpeed="5"/>
    <vehicle id="right_44" type="car" route="right" depart="82" departSpeed="5"/>
    <vehicle id="down_45" type="car" route="down" depart="84" departSpeed="5"/>
    <vehicle id="up_46" type="car" route="up" depart="88" departSpeed="5"/>
    <vehicle id="left_47" type="car" route="left" depart="89" departSpeed="5"/>
    <vehicle id="up_48" type="car" route="up" depart="89" departSpeed="5"/>
    <vehicle id="right_49" type="car" route="right" depart="95" departSpeed="5"/>
    <vehicle id="left_50" type="car" route="left" depart="96" departSpeed="5"/>
    <vehicle id="down_51" type="car" route="down" depart="98" departSpeed="5"/>
    <vehicle id="right_52" type="car" route="right" depart="100" departSpeed="5"/>
    <vehicle id="down_53" type="car" route="down" depart="104" departSpeed="5"/>
    <vehicle id="left_54" type="car" route="left" depart="105" departSpeed="5"/>
    <vehicle id="down_55" type="car" route="down" depart="106" departSpeed="5"/>
    <vehicle id="right_56" type="car" route="right" depart="107" departSpeed="5"/>
    <vehicle id="right_57" type="car" route="right" depart="109" departSpeed="5"/>
    <vehicle id="down_58" type="car" route="down" depart="109" departSpeed="5"/>
    <vehicle id="right_59" type="car" route="right" depart="121" departSpeed="5"/>
    <vehicle id="left_60" type="car" route="left" depart="121" departSpeed="5"/>
    <vehicle id="right_61" type="car" route="right" depart="125" departSpeed="5"/>
    <vehicle id="down_62" type="car" route="down" depart="125" departSpeed="5"/>
    <vehicle id="right_63" type="car" route="right" depart="130" departSpeed="5"/>
    <vehicle id="left_64" type="car" route="left" depart="143" departSpeed="5"/>
    <vehicle id="left_65" type="car" route="left" depart="145" departSpeed="5"/>
    <vehicle id="right_66" type="car" route="right" depart="146" departSpeed="5"/>
    <vehicle id="up_67" type="car" route="up" depart="146" departSpeed="5"/>
    <vehicle id="right_68" type="car" route="right" depart="147" departSpeed="5"/>
    <vehicle id="right_69" type="car" route="right" depart="148" departSpeed="5"/>
    <vehicle id="left_70" type="car" route="left" depart="148" departSpeed="5"/>
    <vehicle id="right_71" type="car" route="right" depart="151" departSpeed="5"/>
    <vehicle id="left_72" type="car" route="left" depart="152" departSpeed="5"/>
    <vehicle id="left_73" type="car" route="left" depart="156" departSpeed="5"/>
    <vehicle id="up_74" type="car" route="up" depart="159" departSpeed="5"/>
    <vehicle id="right_75" type="car" route="right" depart="163" departSpeed="5"/>
    <vehicle id="up_76" type="car" route="up" depart="167" departSpeed="5"/>
    <vehicle id="down_77" type="car" route="down" depart="168" departSpeed="5"/>
    <vehicle id="up_78" type="car" route="up" depart="168" departSpeed="5"/>
    <vehicle id="up_79" type="car" route="up" depart="170" departSpeed="5"/>
    <vehicle id="down_80" type="car" route="down" depart="171" departSpeed="5"/>
    <vehicle id="right_81" type="car" route="right" depart="173" departSpeed="5"/>
    <vehicle id="right_82" type="car" route="right" depart="176" departSpeed="5"/>
    <vehicle id="up_83" type="car" route="up" depart="177" departSpeed="5"/>
    <vehicle id="right_84" type="car" route="right" depart="179" departSpeed="5"/>
    <vehicle id="left_85" type="car" route="left" depart="179" departSpeed="5"/>
    <vehicle id="up_86" type="car" route="up" depart="179" departSpeed="5"/>
    <vehicle id="down_87" type="car" route="down" depart="181" departSpeed="5"/>
    <vehicle id="right_88" type="car" route="right" depart="185" departSpeed="5"/>
    <vehicle id="left_89" type="car" route="left" depart="185" departSpeed="5"/>
    <vehicle id="up_90" type="car" route="up" depart="190" departSpeed="5"/>
    <vehicle id="down_91" type="car" route="down" depart="193" departSpeed="5"/>
    <vehicle id="up_92" type="car" route="up" depart="193" departSpeed="5"/>
    <vehicle id="up_93" type="car" route="up" depart="195" departSpeed="5"/>
    <vehicle id="left_94" type="car" route="left" depart="196" departSpeed="5"/>
    <vehicle id="right_95" type="car" route="right" depart="202" departSpeed="5"/>
    <vehicle id="right_96" type="car" route="right" depart="204" departSpeed="5"/>
    <vehicle id="down_97" type="car" route="down" depart="204" departSpeed="5"/>
    <vehicle id="left_98" type="car" route="left" depart="209" departSpeed="5"/>
    <vehicle id="right_99" type="car" route="right" depart="210" departSpeed="5"/>
    <vehicle id="left_100" type="car" route="left" depart="211" departSpeed="5"/>
    <vehicle id="right_101" type="car" route="right" depart="214" departSpeed="5"/>
    <vehicle id="down_102" type="car" route="down" depart="217" departSpeed="5"/>
    <vehicle id="up_103" type="car" route="up" depart="221" departSpeed="5"/>
    <vehicle id="left_104" type="car" route="left" depart="229" departSpeed="5"/>
    <vehicle id="right_105" type="car" route="right" depart="230" departSpeed="5"/>
    <vehicle id="up_106" type="car" route="up" depart="230" departSpeed="5"/>
    <vehicle id="right_107" type="car" route="right" depart="233" departSpeed="5"/>
    <vehicle id="left_108" type="car" route="left" depart="237" departSpeed="5"/>
    <vehicle id="down_109" type="car" route="down" depart="237" departSpeed="5"/>
    <vehicle id="left_110" type="car" route="left" depart="238" departSpeed="5"/>
    <vehicle id="left_111" type="car" route="left" depart="244" departSpeed="5"/>
    <vehicle id="left_112" type="car" route="left" depart="245" departSpeed="5"/>
    <vehicle id="left_113" type="car" route="left" depart="246" departSpeed="5"/>
    <vehicle id="up_114" type="car" route="up" depart="249" departSpeed="5"/>
    <vehicle id="right_115" type="car" route="right" depart="250" departSpeed="5"/>
    <vehicle id="right_116" type="car" route="right" depart="252" departSpeed="5"/>
    <vehicle id="down_117" type="car" route="down" depart="254" departSpeed="5"/>
    <vehicle id="right_118" type="car" route="right" depart="259" departSpeed="5"/>
    <vehicle id="right_119" type="car" route="right" depart="261" departSpeed="5"/>
    <vehicle id="left_120" type="car" route="left" depart="261" departSpeed="5"/>
    <vehicle id="right_121" type="car" route="right" depart="264" departSpeed="5"/>
    <vehicle id="left_122" type="car" route="left" depart="264" departSpeed="5"/>
    <vehicle id="left_123" type="car" route="left" depart="267" departSpeed="5"/>
    <vehicle id="up_124" type="car" route="up" depart="267" departSpeed="5"/>
    <vehicle id="left_125" type="car" route="left" depart="270" departSpeed="5"/>
    <vehicle id="left_126" type="car" route="left" depart="276" departSpeed="5"/>
    <vehicle id="down_127" type="car" route="down" depart="276" departSpeed="5"/>
    <vehicle id="up_128" type="car" route="up" depart="278" departSpeed="5"/>
    <vehicle id="right_129" type="car" route="right" depart="285" departSpeed="5"/>
    <vehicle id="right_130" type="car" route="right" depart="286" departSpeed="5"/>
    <vehicle id="left_131" type="car" route="left" depart="286" departSpeed="5"/>
    <vehicle id="down_132" type="car" route="down" depart="299" departSpeed="5"/>
    <vehicle id="up_133" type="car" route="up" depart="299" departSpeed="5"/>
    <vehicle id="up_134" type="car" route="up" depart="302" departSpeed="5"/>
    <vehicle id="up_135" type="car" route="up" depart="305" departSpeed="5"/>
    <vehicle id="right_136" type="car" route="right" depart="306" departSpeed="5"/>
    <vehicle id="down_137" type="car" route="down" depart="312" departSpeed="5"/>
    <vehicle id="down_138" type="car" route="down" depart="314" departSpeed="5"/>
    <vehicle id="right_139" type="car" route="right" depart="318" departSpeed="5"/>
    <vehicle id="right_140" type="car" route="right" depart="320" departSpeed="5"/>
    <vehicle id="up_141" type="car" route="up" depart="321" departSpeed="5"/>
    <vehicle id="right_142" type="car" route="right" depart="327" departSpeed="5"/>
    <vehicle id="left_143" type="car" route="left" depart="330" departSpeed="5"/>
    <vehicle id="up_144" type="car" route="up" depart="330" departSpeed="5"/>
    <vehicle id="right_145" type="car" route="right" depart="332" departSpeed="5"/>
    <vehicle id="left_146" type="car" route="left" depart="336" departSpeed="5"/>
    <vehicle id="down_147" type="car" route="down" depart="338" departSpeed="5"/>
    <vehicle id="right_148" type="car" route="right" depart="339" departSpeed="5"/>
    <vehicle id="right_149" type="car" route="right" depart="340" departSpeed="5"/>
    <vehicle id="down_150" type="car" route="down" depart="341" departSpeed="5"/>
    <vehicle id="right_151" type="car" route="right" depart="344" departSpeed="5"/>
    <vehicle id="right_152" type="car" route="right" depart="345" departSpeed="5"/>
    <vehicle id="up_153" type="car" route="up" depart="346" departSpeed="5"/>
    <vehicle id="left_154" type="car" route="left" depart="347" departSpeed="5"/>
    <vehicle id="down_155" type="car" route="down" depart="348" departSpeed="5"/>
    <vehicle id="right_156" type="car" route="right" depart="349" departSpeed="5"/>
    <vehicle id="left_157" type="car" route="left" depart="349" departSpeed="5"/>
    <vehicle id="down_158" type="car" route="down" depart="357" departSpeed="5"/>
    <vehicle id="up_159" type="car" route="up" depart="364" departSpeed="5"/>
    <vehicle id="down_160" type="car" route="down" depart="373" departSpeed="5"/>
    <vehicle id="right_161" type="car" route="right" depart="378" departSpeed="5"/>
    <vehicle id="left_162" type="car" route="left" depart="380" departSpeed="5"/>
    <vehicle id="up_163" type="car" route="up" depart="380" departSpeed="5"/>
    <vehicle id="down_164" type="car" route="down" depart="381" departSpeed="5"/>
    <vehicle id="up_165" type="car" route="up" depart="383" departSpeed="5"/>
    <vehicle id="left_166" type="car" route="left" depart="392" departSpeed="5"/>
    <vehicle id="right_167" type="car" route="right" depart="395" departSpeed="5"/>
    <vehicle id="right_168" type="car" route="right" depart="399" departSpeed="5"/>
    <vehicle id="up_169" type="car" route="up" depart="403" departSpeed="5"/>
    <vehicle id="left_170" type="car" route="left" depart="407" departSpeed="5"/>
    <vehicle id="down_171" type="car" route="down" depart="411" departSpeed="5"/>
    <vehicle id="down_172" type="car" route="down" depart="412" departSpeed="5"/>
    <vehicle id="right_173" type="car" route="right" depart="414" departSpeed="5"/>
    <vehicle id="right_174" type="car" route="right" depart="419" departSpeed="5"/>
    <vehicle id="down_175" type="car" route="down" depart="419" departSpeed="5"/>
    <vehicle id="right_176" type="car" route="right" depart="423" departSpeed="5"/>
    <vehicle id="down_177" type="car" route="down" depart="423" departSpeed="5"/>
    <vehicle id="up_178" type="car" route="up" depart="438" departSpeed="5"/>
    <vehicle id="up_179" type="car" route="up" depart="439" departSpeed="5"/>
    <vehicle id="down_180" type="car" route="down" depart="440" departSpeed="5"/>
    <vehicle id="up_181" type="car" route="up" depart="441" departSpeed="5"/>
    <vehicle id="left_182" type="car" route="left" depart="444" departSpeed="5"/>
    <vehicle id="up_183" type="car" route="up" depart="453" departSpeed="5"/>
    <vehicle id="right_184" type="car" route="right" depart="454" departSpeed="5"/>
    <vehicle id="down_185" type="car" route="down" depart="454" departSpeed="5"/>
    <vehicle id="down_186" type="car" route="down" depart="460" departSpeed="5"/>
    <vehicle id="up_187" type="car" route="up" depart="460" departSpeed="5"/>
    <vehicle id="down_188" type="car" route="down" depart="463" departSpeed="5"/>
    <vehicle id="right_189" type="car" route="right" depart="468" departSpeed="5"/>
    <vehicle id="left_190" type="car" route="left" depart="468" departSpeed="5"/>
    <vehicle id="up_191" type="car" route="up" depart="469" departSpeed="5"/>
    <vehicle id="down_192" type="car" route="down" depart="470" departSpeed="5"/>
    <vehicle id="up_193" type="car" route="up" depart="471" departSpeed="5"/>
    <vehicle id="up_194" type="car" route="up" depart="479" departSpeed="5"/>
    <vehicle id="down_195" type="car" route="down" depart="481" departSpeed="5"/>
    <vehicle id="right_196" type="car" route="right" depart="488" departSpeed="5"/>
    <vehicle id="up_197" type="car" route="up" depart="492" departSpeed="5"/>
    <vehicle id="up_198" type="car" route="up" depart="494" departSpeed="5"/>
    <vehicle id="down_199" type="car" route="down" depart="501" departSpeed="5"/>
    <vehicle id="down_200" type="car" route="down" depart="503" departSpeed="5"/>
    <vehicle id="right_201" type="car" route="right" depart="504" departSpeed="5"/>
    <vehicle id="left_202" type="car" route="left" depart="504" departSpeed="5"/>
    <vehicle id="down_203" type="car" route="down" depart="504" departSpeed="5"/>
    <vehicle id="right_204" type="car" route="right" depart="505" departSpeed="5"/>
    <vehicle id="up_205" type="car" route="up" depart="506" departSpeed="5"/>
    <vehicle id="left_206" type="car" route="left" depart="512" departSpeed="5"/>
    <vehicle id="down_207" type="car" route="down" depart="513" departSpeed="5"/>
    <vehicle id="down_208" type="car" route="down" depart="515" departSpeed="5"/>
    <vehicle id="up_209" type="car" route="up" depart="515" departSpeed="5"/>
    <vehicle id="right_210" type="car" route="right" depart="518" departSpeed="5"/>
    <vehicle id="left_211" type="car" route="left" depart="521" departSpeed="5"/>
    <vehicle id="down_212" type="car" route="down" depart="523" departSpeed="5"/>
    <vehicle id="up_213" type="car" route="up" depart="524" departSpeed="5"/>
    <vehicle id="left_214" type="car" route="left" depart="531" departSpeed="5"/>
    <vehicle id="up_215" type="car" route="up" depart="531" departSpeed="5"/>
    <vehicle id="down_216" type="car" route="down" depart="532" departSpeed="5"/>
    <vehicle id="down_217" type="car" route="down" depart="535" departSpeed="5"/>
    <vehicle id="left_218" type="car" route="left" depart="539" departSpeed="5"/>
    <vehicle id="down_219" type="car" route="down" depart="542" departSpeed="5"/>
    <vehicle id="down_220" type="car" route="down" depart="544" departSpeed="5"/>
    <vehicle id="right_221" type="car" route="right" depart="547" departSpeed="5"/>
    <vehicle id="left_222" type="car" route="left" depart="549" departSpeed="5"/>
    <vehicle id="down_223" type="car" route="down" depart="549" departSpeed="5"/>
    <vehicle id="left_224" type="car" route="left" depart="557" departSpeed="5"/>
    <vehicle id="down_225" type="car" route="down" depart="559" departSpeed="5"/>
    <vehicle id="down_226" type="car" route="down" depart="560" departSpeed="5"/>
    <vehicle id="left_227" type="car" route="left" depart="561" departSpeed="5"/>
    <vehicle id="up_228" type="car" route="up" depart="561" departSpeed="5"/>
    <vehicle id="down_229" type="car" route="down" depart="562" departSpeed="5"/>
    <vehicle id="down_230" type="car" route="down" depart="563" departSpeed="5"/>
    <vehicle id="left_231" type="car" route="left" depart="567" departSpeed="5"/>
    <vehicle id="left_232" type="car" route="left" depart="568" departSpeed="5"/>
    <vehicle id="left_233" type="car" route="left" depart="570" departSpeed="5"/>
    <vehicle id="left_234" type="car" route="left" depart="571" departSpeed="5"/>
    <vehicle id="down_235" type="car" route="down" depart="571" departSpeed="5"/>
    <vehicle id="right_236" type="car" route="right" depart="572" departSpeed="5"/>
    <vehicle id="right_237" type="car" route="right" depart="578" departSpeed="5"/>
    <vehicle id="right_238" type="car" route="right" depart="579" departSpeed="5"/>
    <vehicle id="right_239" type="car" route="right" depart="583" departSpeed="5"/>
    <vehicle id="down_240" type="car" route="down" depart="583" departSpeed="5"/>
    <vehicle id="up_241" type="car" route="up" depart="584" departSpeed="5"/>
    <vehicle id="left_242" type="car" route="left" depart="586" departSpeed="5"/>
    <vehicle id="up_243" type="car" route="up" depart="591" departSpeed="5"/>
    <vehicle id="left_244" type="car" route="left" depart="593" departSpeed="5"/>
    <vehicle id="up_245" type="car" route="up" depart="594" departSpeed="5"/>
    <vehicle id="left_246" type="car" route="left" depart="595" departSpeed="5"/>
    <vehicle id="left_247" type="car" route="left" depart="597" departSpeed="5"/>
    <vehicle id="left_248" type="car" route="left" depart="600" departSpeed="5"/>
    <vehicle id="down_249" type="car" route="down" depart="600" departSpeed="5"/>
    <vehicle id="right_250" type="car" route="right" depart="601" departSpeed="5"/>
    <vehicle id="down_251" type="car" route="down" depart="602" departSpeed="5"/>
    <vehicle id="right_252" type="car" route="right" depart="603" departSpeed="5"/>
    <vehicle id="down_253" type="car" route="down" depart="604" departSpeed="5"/>
    <vehicle id="down_254" type="car" route="down" depart="606" departSpeed="5"/>
    <vehicle id="left_255" type="car" route="left" depart="613" departSpeed="5"/>
    <vehicle id="down_256" type="car" route="down" depart="621" departSpeed="5"/>
    <vehicle id="up_257" type="car" route="up" depart="623" departSpeed="5"/>
    <vehicle id="up_258" type="car" route="up" depart="628" departSpeed="5"/>
    <vehicle id="up_259" type="car" route="up" depart="632" departSpeed="5"/>
    <vehicle id="right_260" type="car" route="right" depart="644" departSpeed="5"/>
    <vehicle id="down_261" type="car" route="down" depart="650" departSpeed="5"/>
    <vehicle id="up_262" type="car" route="up" depart="651" departSpeed="5"/>
    <vehicle id="left_263" type="car" route="left" depart="654" departSpeed="5"/>
    <vehicle id="down_264" type="car" route="down" depart="654" departSpeed="5"/>
    <vehicle id="left_265" type="car" route="left" depart="656" departSpeed="5"/>
    <vehicle id="left_266" type="car" route="left" depart="657" departSpeed="5"/>
    <vehicle id="up_267" type="car" route="up" depart="658" departSpeed="5"/>
    <vehicle id="left_268" type="car" route="left" depart="659" departSpeed="5"/>
    <vehicle id="left_269" type="car" route="left" depart="668" departSpeed="5"/>
    <vehicle id="right_270" type="car" route="right" depart="680" departSpeed="5"/>
    <vehicle id="left_271" type="car" route="left" depart="683" departSpeed="5"/>
    <vehicle id="up_272" type="car" route="up" depart="683" departSpeed="5"/>
    <vehicle id="down_273" type="car" route="down" depart="686" departSpeed="5"/>
    <vehicle id="left_274" type="car" route="left" depart="694" departSpeed="5"/>
    <vehicle id="up_275" type="car" route="up" depart="694" departSpeed="5"/>
    <vehicle id="down_276" type="car" route="down" depart="695" departSpeed="5"/>
    <vehicle id="left_277" type="car" route="left" depart="699" departSpeed="5"/>
    <vehicle id="up_278" type="car" route="up" depart="699" departSpeed="5"/>
    <vehicle id="left_279" type="car" route="left" depart="702" departSpeed="5"/>
    <vehicle id="down_280" type="car" route="down" depart="702" departSpeed="5"/>
    <vehicle id="up_281" type="car" route="up" depart="704" departSpeed="5"/>
    <vehicle id="left_282" type="car" route="left" depart="708" departSpeed="5"/>
    <vehicle id="left_283" type="car" route="left" depart="711" departSpeed="5"/>
    <vehicle id="right_284" type="car" route="right" depart="713" departSpeed="5"/>
    <vehicle id="right_285" type="car" route="right" depart="714" departSpeed="5"/>
    <vehicle id="left_286" type="car" route="left" depart="716" departSpeed="5"/>
    <vehicle id="up_287" type="car" route="up" depart="723" departSpeed="5"/>
    <vehicle id="down_288" type="car" route="down" depart="725" departSpeed="5"/>
    <vehicle id="up_289" type="car" route="up" depart="725" departSpeed="5"/>
    <vehicle id="left_290" type="car" route="left" depart="728" departSpeed="5"/>
    <vehicle id="right_291" type="car" route="right" depart="733" departSpeed="5"/>
    <vehicle id="right_292" type="car" route="right" depart="736" departSpeed="5"/>
    <vehicle id="up_293" type="car" route="up" depart="752" departSpeed="5"/>
    <vehicle id="right_294" type="car" route="right" depart="758" departSpeed="5"/>
    <vehicle id="up_295" type="car" route="up" depart="758" departSpeed="5"/>
    <vehicle id="up_296" type="car" route="up" depart="764" departSpeed="5"/>
    <vehicle id="left_297" type="car" route="left" depart="765" departSpeed="5"/>
    <vehicle id="left_298" type="car" route="left" depart="769" departSpeed="5"/>
    <vehicle id="up_299" type="car" route="up" depart="769" departSpeed="5"/>
    <vehicle id="up_300" type="car" route="up" depart="770" departSpeed="5"/>
    <vehicle id="up_301" type="car" route="up" depart="780" departSpeed="5"/>
    <vehicle id="down_302" type="car" route="down" depart="783" departSpeed="5"/>
    <vehicle id="up_303" type="car" route="up" depart="783" departSpeed="5"/>
    <vehicle id="left_304" type="car" route="left" depart="785" departSpeed="5"/>
    <vehicle id="down_305" type="car" route="down" depart="788" departSpeed="5"/>
    <vehicle id="up_306" type="car" route="up" depart="788" departSpeed="5"/>
    <vehicle id="up_307" type="car" route="up" depart="789" departSpeed="5"/>
    <vehicle id="left_308" type="car" route="left" depart="794" departSpeed="5"/>
    <vehicle id="down_309" type="car" route="down" depart="796" departSpeed="5"/>
    <vehicle id="left_310" type="car" route="left" depart="797" departSpeed="5"/>
    <vehicle id="up_311" type="car" route="up" depart="797" departSpeed="5"/>
    <vehicle id="left_312" type="car" route="left" depart="802" departSpeed="5"/>
    <vehicle id="up_313" type="car" route="up" depart="802" departSpeed="5"/>
    <vehicle id="up_314" type="car" route="up" depart="807" departSpeed="5"/>
    <vehicle id="down_315" type="car" route="down" depart="812" departSpeed="5"/>
    <vehicle id="right_316" type="car" route="right" depart="817" departSpeed="5"/>
    <vehicle id="left_317" type="car" route="left" depart="822" departSpeed="5"/>
    <vehicle id="right_318" type="car" route="right" depart="825" departSpeed="5"/>
    <vehicle id="right_319" type="car" route="right" depart="827" departSpeed="5"/>
    <vehicle id="right_320" type="car" route="right" depart="831" departSpeed="5"/>
    <vehicle id="left_321" type="car" route="left" depart="831" departSpeed="5"/>
    <vehicle id="down_322" type="car" route="down" depart="831" departSpeed="5"/>
    <vehicle id="down_323" type="car" route="down" depart="834" departSpeed="5"/>
    <vehicle id="up_324" type="car" route="up" depart="834" departSpeed="5"/>
    <vehicle id="down_325" type="car" route="down" depart="835" departSpeed="5"/>
    <vehicle id="up_326" type="car" route="up" depart="837" departSpeed="5"/>
    <vehicle id="down_327" type="car" route="down" depart="839" departSpeed="5"/>
    <vehicle id="left_328" type="car" route="left" depart="844" departSpeed="5"/>
    <vehicle id="up_329" type="car" route="up" depart="844" departSpeed="5"/>
    <vehicle id="right_330" type="car" route="right" depart="845" departSpeed="5"/>
    <vehicle id="right_331" type="car" route="right" depart="846" departSpeed="5"/>
    <vehicle id="left_332" type="car" route="left" depart="846" departSpeed="5"/>
    <vehicle id="right_333" type="car" route="right" depart="852" departSpeed="5"/>
    <vehicle id="down_334" type="car" route="down" depart="852" departSpeed="5"/>
    <vehicle id="right_335" type="car" route="right" depart="855" departSpeed="5"/>
    <vehicle id="left_336" type="car" route="left" depart="855" departSpeed="5"/>
    <vehicle id="right_337" type="car" route="right" depart="858" departSpeed="5"/>
    <vehicle id="right_338" type="car" route="right" depart="863" departSpeed="5"/>
    <vehicle id="down_339" type="car" route="down" depart="864" departSpeed="5"/>
    <vehicle id="right_340" type="car" route="right" depart="866" departSpeed="5"/>
    <vehicle id="right_341" type="car" route="right" depart="870" departSpeed="5"/>
    <vehicle id="up_342" type="car" route="up" depart="870" departSpeed="5"/>
    <vehicle id="down_343" type="car" route="down" depart="871" departSpeed="5"/>
    <vehicle id="left_344" type="car" route="left" depart="872" departSpeed="5"/>
    <vehicle id="right_345" type="car" route="right" depart="873" departSpeed="5"/>
    <vehicle id="right_346" type="car" route="right" depart="879" departSpeed="5"/>
    <vehicle id="right_347" type="car" route="right" depart="882" departSpeed="5"/>
    <vehicle id="right_348" type="car" route="right" depart="885" departSpeed="5"/>
    <vehicle id="right_349" type="car" route="right" depart="886" departSpeed="5"/>
    <vehicle id="left_350" type="car" route="left" depart="897" departSpeed="5"/>
    <vehicle id="up_351" type="car" route="up" depart="898" departSpeed="5"/>
    <vehicle id="down_352" type="car" route="down" depart="914" departSpeed="5"/>
    <vehicle id="up_353" type="car" route="up" depart="915" departSpeed="5"/>
    <vehicle id="up_354" type="car" route="up" depart="916" departSpeed="5"/>
    <vehicle id="left_355" type="car" route="left" depart="917" departSpeed="5"/>
    <vehicle id="up_356" type="car" route="up" depart="918" departSpeed="5"/>
    <vehicle id="up_357" type="car" route="up" depart="919" departSpeed="5"/>
    <vehicle id="up_358" type="car" route="up" depart="921" departSpeed="5"/>
    <vehicle id="down_359" type="car" route="down" depart="930" departSpeed="5"/>
    <vehicle id="left_360" type="car" route="left" depart="941" departSpeed="5"/>
    <vehicle id="up_361" type="car" route="up" depart="949" departSpeed="5"/>
    <vehicle id="up_362" type="car" route="up" depart="953" departSpeed="5"/>
    <vehicle id="left_363" type="car" route="left" depart="957" departSpeed="5"/>
    <vehicle id="up_364" type="car" route="up" depart="957" departSpeed="5"/>
    <vehicle id="right_365" type="car" route="right" depart="962" departSpeed="5"/>