<routes>
                               <vType id="car" accel="1.0" decel="4.5" sigma="0.7" length="5" minGap="3" maxSpeed="15" guiShape="passenger"/>

                               <route id="WETop" edges="5i 1i 2o" />
                               <route id="EWTop" edges="2i 1o 5o" />
                               <route id="NS" edges="4i 3o 8i" />
                               <route id="SN" edges="8o 3i 4o" />
                               <route id="WEBottom" edges="9o 7o 11o" />
                               <route id="EWBottom" edges="11i 7i 9i" />

                               <route id="t1" edges="6o 1i 3o 11o" />
                               <route id="t2" edges="8o 7i 10i" />
                               <route id="t3" edges="4i 1o 6i" />
                               <route id="t4" edges="10o 7o 11o" />

                               <route id="t5" edges="9o 7o 8i" />
                               <route id="t6" edges="9o 10i" />
                               <route id="t7" edges="6o 5o" />
                               <route id="t8" edges="4i 3o 11o" />
                               <route id="t9" edges="9o 7o 3i 1o 6i" />
                               
    <vehicle id="t7_0" type="car" route="t7" depart="0" departSpeed="5"/>
    <vehicle id="WEBottom_1" type="car" route="WEBottom" depart="1" departSpeed="5"/>
    <vehicle id="t7_2" type="car" route="t7" depart="4" departSpeed="5"/>
    <vehicle id="t4_3" type="car" route="t4" depart="5" departSpeed="5"/>
    <vehicle id="t5_4" type="car" route="t5" depart="5" departSpeed="5"/>
    <vehicle id="WETop_5" type="car" route="WETop" depart="6" departSpeed="5"/>
    <vehicle id="EWTop_6" type="car" route="EWTop" depart="6" departSpeed="5"/>
    <vehicle id="WETop_7" type="car" route="WETop" depart="7" departSpeed="5"/>
    <vehicle id="WEBottom_8" type="car" route="WEBottom" depart="7" departSpeed="5"/>
    <vehicle id="t1_9" type="car" route="t1" depart="7" departSpeed="5"/>
    <vehicle id="t2_10" type="car" route="t2" depart="7" departSpeed="5"/>
    <vehicle id="t3_11" type="car" route="t3" depart="7" departSpeed="5"/>
    <vehicle id="t9_12" type="car" route="t9" depart="7" departSpeed="5"/>
    <vehicle id="WETop_13" type="car" route="WETop" depart="9" departSpeed="5"/>
    <vehicle id="WEBottom_14" type="car" route="WEBottom" depart="10" departSpeed="5"/>
    <vehicle id="t7_15" type="car" route="t7" depart="10" departSpeed="5"/>
    <vehicle id="EWBottom_16" type="car" route="EWBottom" depart="12" departSpeed="5"/>
    <vehicle id="t2_17" type="car" route="t2" depart="12" departSpeed="5"/>
    <vehicle id="t4_18" type="car" route="t4" depart="12" departSpeed="5"/>
    <vehicle id="t5_19" type="car" route="t5" depart="12" departSpeed="5"/>
    <vehicle id="EWTop_20" type="car" route="EWTop" depart="13" departSpeed="5"/>
    <vehicle id="NS_21" type="car" route="NS" depart="13" departSpeed="5"/>
    <vehicle id="t6_22" type="car" route="t6" depart="13" departSpeed="5"/>
    <vehicle id="t9_23" type="car" route="t9" depart="13" departSpeed="5"/>
    <vehicle id="t4_24" type="car" route="t4" depart="16" departSpeed="5"/>
    <vehicle id="t5_25" type="car" route="t5" depart="16" departSpeed="5"/>
    <vehicle id="SN_26" type="car" route="SN" depart="17" departSpeed="5"/>
    <vehicle id="t1_27" type="car" route="t1" depart="17" departSpeed="5"/>
    <vehicle id="EWBottom_28" type="car" route="EWBottom" depart="19" departSpeed="5"/>
    <vehicle id="t4_29" type="car" route="t4" depart="19" departSpeed="5"/>
    <vehicle id="t5_30" type="car" route="t5" depart="19" departSpeed="5"/>
    <vehicle id="t3_31" type="car" route="t3" depart="20" departSpeed="5"/>
    <vehicle id="WETop_32" type="car" route="WETop" depart="21" departSpeed="5"/>
    <vehicle id="WEBottom_33" type="car" route="WEBottom" depart="21" departSpeed="5"/>
    <vehicle id="t3_34" type="car" route="t3" depart="21" departSpeed="5"/>
    <vehicle id="t6_35" type="car" route="t6" depart="21" departSpeed="5"/>
    <vehicle id="NS_36" type="car" route="NS" depart="22" departSpeed="5"/>
    <vehicle id="t2_37" type="car" route="t2" depart="22" departSpeed="5"/>
    <vehicle id="t8_38" type="car" route="t8" depart="22" departSpeed="5"/>
    <vehicle id="SN_39" type="car" route="SN" depart="25" departSpeed="5"/>
    <vehicle id="WEBottom_40" type="car" route="WEBottom" depart="28" departSpeed="5"/>
    <vehicle id="t7_41" type="car" route="t7" depart="28" departSpeed="5"/>
    <vehicle id="WEBottom_42" type="car" route="WEBottom" depart="29" departSpeed="5"/>
    <vehicle id="SN_43" type="car" route="SN" depart="29" departSpeed="5"/>
    <vehicle id="t7_44" type="car" route="t7" depart="29" departSpeed="5"/>
    <vehicle id="EWTop_45" type="car" route="EWTop" depart="31" departSpeed="5"/>
    <vehicle id="t3_46" type="car" route="t3" depart="31" departSpeed="5"/>
    <vehicle id="t6_47" type="car" route="t6" depart="31" departSpeed="5"/>
    <vehicle id="t7_48" type="car" route="t7" depart="31" departSpeed="5"/>
    <vehicle id="WEBottom_49" type="car" route="WEBottom" depart="32" departSpeed="5"/>
    <vehicle id="SN_50" type="car" route="SN" depart="32" departSpeed="5"/>
    <vehicle id="t1_51" type="car" route="t1" depart="32" departSpeed="5"/>
    <vehicle id="t4_52" type="car" route="t4" depart="32" departSpeed="5"/>
    <vehicle id="t5_53" type="car" route="t5" depart="32" departSpeed="5"/>
    <vehicle id="t8_54" type="car" route="t8" depart="33" departSpeed="5"/>
    <vehicle id="NS_55" type="car" route="NS" depart="34" departSpeed="5"/>
    <vehicle id="t2_56" type="car" route="t2" depart="35" departSpeed="5"/>
    <vehicle id="t1_57" type="car" route="t1" depart="36" departSpeed="5"/>
    <vehicle id="SN_58" type="car" route="SN" depart="37" departSpeed="5"/>
    <vehicle id="EWBottom_59" type="car" route="EWBottom" depart="41" departSpeed="5"/>
    <vehicle id="t1_60" type="car" route="t1" depart="41" departSpeed="5"/>
    <vehicle id="t7_61" type="car" route="t7" depart="41" departSpeed="5"/>
    <vehicle id="t8_62" type="car" route="t8" depart="43" departSpeed="5"/>
    <vehicle id="WETop_63" type="car" route="WETop" depart="45" departSpeed="5"/>
    <vehicle id="t9_64" type="car" route="t9" depart="46" departSpeed="5"/>
    <vehicle id="WEBottom_65" type="car" route="WEBottom" depart="47" departSpeed="5"/>
    <vehicle id="NS_66" type="car" route="NS" depart="47" departSpeed="5"/>
    <vehicle id="t4_67" type="car" route="t4" depart="48" departSpeed="5"/>
    <vehicle id="t5_68" type="car" route="t5" depart="48" departSpeed="5"/>
    <vehicle id="t8_69" type="car" route="t8" depart="48" departSpeed="5"/>
    <vehicle id="EWTop_70" type="car" route="EWTop" depart="49" departSpeed="5"/>
    <vehicle id="t1_71" type="car" route="t1" depart="49" departSpeed="5"/>
    <vehicle id="t6_72" type="car" route="t6" depart="49" departSpeed="5"/>
    <vehicle id="t1_73" type="car" route="t1" depart="50" departSpeed="5"/>
    <vehicle id="t6_74" type="car" route="t6" depart="51" departSpeed="5"/>
    <vehicle id="EWTop_75" type="car" route="EWTop" depart="53" departSpeed="5"/>
    <vehicle id="NS_76" type="car" route="NS" depart="53" departSpeed="5"/>
    <vehicle id="t6_77" type="car" route="t6" depart="54" departSpeed="5"/>
    <vehicle id="t6_78" type="car" route="t6" depart="54" departSpeed="5"/>
    <vehicle id="WEBottom_79" type="car" route="WEBottom" depart="55" departSpeed="5"/>
    <vehicle id="SN_80" type="car" route="SN" depart="55" departSpeed="5"/>
    <vehicle id="t6_81" type="car" route="t6" depart="55" departSpeed="5"/>
    <vehicle id="t6_82" type="car" route="t6" depart="55" departSpeed="5"/>
    <vehicle id="t9_83" type="car" route="t9" depart="55" departSpeed="5"/>
    <vehicle id="t3_84" type="car" route="t3" depart="56" departSpeed="5"/>
    <vehicle id="EWTop_85" type="car" route="EWTop" depart="59" departSpeed="5"/>
    <vehicle id="NS_86" type="car" route="NS" depart="59" departSpeed="5"/>
    <vehicle id="t6_87" type="car" route="t6" depart="59" departSpeed="5"/>
    <vehicle id="t1_88" type="car" route="t1" depart="60" departSpeed="5"/>
    <vehicle id="t2_89" type="car" route="t2" depart="60" departSpeed="5"/>
    <vehicle id="t1_90" type="car" route="t1" depart="61" departSpeed="5"/>
    <vehicle id="t2_91" type="car" route="t2" depart="61" departSpeed="5"/>
    <vehicle id="EWBottom_92" type="car" route="EWBottom" depart="62" departSpeed="5"/>
    <vehicle id="t3_93" type="car" route="t3" depart="62" departSpeed="5"/>
    <vehicle id="t8_94" type="car" route="t8" depart="63" departSpeed="5"/>
    <vehicle id="EWBottom_95" type="car" route="EWBottom" depart="64" departSpeed="5"/>
    <vehicle id="t2_96" type="car" route="t2" depart="64" departSpeed="5"/>
    <vehicle id="t6_97" type="car" route="t6" depart="64" departSpeed="5"/>
    <vehicle id="t8_98" type="car" route="t8" depart="64" departSpeed="5"/>
    <vehicle id="WETop_99" type="car" route="WETop" depart="65" departSpeed="5"/>
    <vehicle id="WETop_100" type="car" route="WETop" depart="66" departSpeed="5"/>
    <vehicle id="WEBottom_101" type="car" route="WEBottom" depart="66" departSpeed="5"/>
    <vehicle id="t6_102" type="car" route="t6" depart="67" departSpeed="5"/>
    <vehicle id="t6_103" type="car" route="t6" depart="67" departSpeed="5"/>
    <vehicle id="t9_104" type="car" route="t9" depart="67" departSpeed="5"/>
    <vehicle id="WEBottom_105" type="car" route="WEBottom" depart="68" departSpeed="5"/>
    <vehicle id="EWBottom_106" type="car" route="EWBottom" depart="68" departSpeed="5"/>
    <vehicle id="t1_107" type="car" route="t1" depart="69" departSpeed="5"/>
    <vehicle id="t8_108" type="car" route="t8" depart="70" departSpeed="5"/>
    <vehicle id="EWBottom_109" type="car" route="EWBottom" depart="71" departSpeed="5"/>
    <vehicle id="t3_110" type="car" route="t3" depart="71" departSpeed="5"/>
    <vehicle id="t7_111" type="car" route="t7" depart="72" departSpeed="5"/>
    <vehicle id="t9_112" type="car" route="t9" depart="72" departSpeed="5"/>
    <vehicle id="EWTop_113" type="car" route="EWTop" depart="73" departSpeed="5"/>
    <vehicle id="t6_114" type="car" route="t6" depart="73" departSpeed="5"/>
    <vehicle id="t7_115" type="car" route="t7" depart="73" departSpeed="5"/>
    <vehicle id="t6_116" type="car" route="t6" depart="74" departSpeed="5"/>
    <vehicle id="WEBottom_117" type="car" route="WEBottom" depart="75" departSpeed="5"/>
    <vehicle id="EWBottom_118" type="car" route="EWBottom" depart="75" departSpeed="5"/>
    <vehicle id="t1_119" type="car" route="t1" depart="75" departSpeed="5"/>
    <vehicle id="t2_120" type="car" route="t2" depart="76" departSpeed="5"/>
    <vehicle id="t6_121" type="car" route="t6" depart="76" departSpeed="5"/>
    <vehicle id="EWBottom_122" type="car" route="EWBottom" depart="77" departSpeed="5"/>
    <vehicle id="NS_123" type="car" route="NS" depart="79" departSpeed="5"/>
    <vehicle id="EWTop_124" type="car" route="EWTop" depart="81" departSpeed="5"/>
    <vehicle id="EWBottom_125" type="car" route="EWBottom" depart="81" departSpeed="5"/>
    <vehicle id="t7_126" type="car" route="t7" depart="81" departSpeed="5"/>
    <vehicle id="t3_127" type="car" route="t3" depart="82" departSpeed="5"/>
    <vehicle id="t3_128" type="car" route="t3" depart="83" departSpeed="5"/>
    <vehicle id="t8_129" type="car" route="t8" depart="83" departSpeed="5"/>
    <vehicle id="WEBottom_130" type="car" route="WEBottom" depart="84" departSpeed="5"/>
    <vehicle id="EWTop_131" type="car" route="EWTop" depart="85" departSpeed="5"/>
    <vehicle id="WEBottom_132" type="car" route="WEBottom" depart="85" departSpeed="5"/>
    <vehicle id="t9_133" type="car" route="t9" depart="86" departSpeed="5"/>
    <vehicle id="t9_134" type="car" route="t9" depart="87" departSpeed="5"/>
    <vehicle id="SN_135" type="car" route="SN" depart="88" departSpeed="5"/>
    <vehicle id="t1_136" type="car" route="t1" depart="88" departSpeed="5"/>
    <vehicle id="t6_137" type="car" route="t6" depart="89" departSpeed="5"/>
    <vehicle id="SN_138" type="car" route="SN" depart="90" departSpeed="5"/>
    <vehicle id="t6_139" type="car" route="t6" depart="90" departSpeed="5"/>
    <vehicle id="EWTop_140" type="car" route="EWTop" depart="91" departSpeed="5"/>
    <vehicle id="NS_141" type="car" route="NS" depart="91" departSpeed="5"/>
    <vehicle id="SN_142" type="car" route="SN" depart="91" departSpeed="5"/>
    <vehicle id="t2_143" type="car" route="t2" depart="92" departSpeed="5"/>
    <vehicle id="WETop_144" type="car" route="WETop" depart="93" departSpeed="5"/>
    <vehicle id="t6_145" type="car" route="t6" depart="93" departSpeed="5"/>
    <vehicle id="EWBottom_146" type="car" route="EWBottom" depart="95" departSpeed="5"/>
    <vehicle id="WEBottom_147" type="car" route="WEBottom" depart="96" departSpeed="5"/>
    <vehicle id="t4_148" type="car" route="t4" depart="96" departSpeed="5"/>
    <vehicle id="t5_149" type="car" route="t5" depart="96" departSpeed="5"/>
    <vehicle id="t7_150" type="car" route="t7" depart="96" departSpeed="5"/>
    <vehicle id="t9_151" type="car" route="t9" depart="96" departSpeed="5"/>
    <vehicle id="t6_152" type="car" route="t6" depart="97" departSpeed="5"/>
    <vehicle id="t6_153" type="car" route="t6" depart="98" departSpeed="5"/>
    <vehicle id="t4_154" type="car" route="t4" depart="99" departSpeed="5"/>
    <vehicle id="t5_155" type="car" route="t5" depart="99" departSpeed="5"/>
    <vehicle id="t1_156" type="car" route="t1" depart="100" departSpeed="5"/>
    <vehicle id="t2_157" type="car" route="t2" depart="102" departSpeed="5"/>
    <vehicle id="EWBottom_158" type="car" route="EWBottom" depart="103" departSpeed="5"/>
    <vehicle id="t1_159" type="car" route="t1" depart="103" departSpeed="5"/>
    <vehicle id="t6_160" type="car" route="t6" depart="103" departSpeed="5"/>
    <vehicle id="t8_161" type="car" route="t8" depart="104" departSpeed="5"/>
    <vehicle id="NS_162" type="car" route="NS" depart="105" departSpeed="5"/>
    <vehicle id="t6_163" type="car" route="t6" depart="105" departSpeed="5"/>
    <vehicle id="t8_164" type="car" route="t8" depart="105" departSpeed="5"/>
    <vehicle id="EWTop_165" type="car" route="EWTop" depart="106" departSpeed="5"/>
    <vehicle id="t1_166" type="car" route="t1" depart="106" departSpeed="5"/>
    <vehicle id="t7_167" type="car" route="t7" depart="106" departSpeed="5"/>
    <vehicle id="WETop_168" type="car" route="WETop" depart="107" departSpeed="5"/>
    <vehicle id="SN_169" type="car" route="SN" depart="107" departSpeed="5"/>
    <vehicle id="t1_170" type="car" route="t1" depart="107" departSpeed="5"/>
    <vehicle id="EWTop_171" type="car" route="EWTop" depart="108" departSpeed="5"/>
    <vehicle id="EWBottom_172" type="car" route="EWBottom" depart="109" departSpeed="5"/>
    <vehicle id="EWBottom_173" type="car" route="EWBottom" depart="110" departSpeed="5"/>
    <vehicle id="t1_174" type="car" route="t1" depart="110" departSpeed="5"/>
    <vehicle id="t2_175" type="car" route="t2" depart="112" departSpeed="5"/>
    <vehicle id="WETop_176" type="car" route="WETop" depart="113" departSpeed="5"/>
    <vehicle id="WETop_177" type="car" route="WETop" depart="115" departSpeed="5"/>
    <vehicle id="EWBottom_178" type="car" route="EWBottom" depart="115" departSpeed="5"/>
    <vehicle id="t8_179" type="car" route="t8" depart="115" departSpeed="5"/>
    <vehicle id="EWTop_180" type="car" route="EWTop" depart="116" departSpeed="5"/>
    <vehicle id="WETop_181" type="car" route="WETop" depart="117" departSpeed="5"/>
    <vehicle id="EWTop_182" type="car" route="EWTop" depart="118" departSpeed="5"/>
    <vehicle id="t8_183" type="car" route="t8" depart="118" departSpeed="5"/>
    <vehicle id="t1_184" type="car" route="t1" depart="119" departSpeed="5"/>
    <vehicle id="t7_185" type="car" route="t7" depart="120" departSpeed="5"/>
    <vehicle id="t2_186" type="car" route="t2" depart="122" departSpeed="5"/>
    <vehicle id="t1_187" type="car" route="t1" depart="123" departSpeed="5"/>
    <vehicle id="WETop_188" type="car" route="WETop" depart="124" departSpeed="5"/>
    <vehicle id="NS_189" type="car" route="NS" depart="125" departSpeed="5"/>
    <vehicle id="t8_190" type="car" route="t8" depart="125" departSpeed="5"/>
    <vehicle id="t9_191" type="car" route="t9" depart="125" departSpeed="5"/>
    <vehicle id="EWTop_192" type="car" route="EWTop" depart="126" departSpeed="5"/>
    <vehicle id="EWBottom_193" type="car" route="EWBottom" depart="126" departSpeed="5"/>
    <vehicle id="t9_194" type="car" route="t9" depart="126" departSpeed="5"/>
    <vehicle id="t1_195" type="car" route="t1" depart="127" departSpeed="5"/>
    <vehicle id="t6_196" type="car" route="t6" depart="127" departSpeed="5"/>
    <vehicle id="t1_197" type="car" route="t1" depart="128" departSpeed="5"/>
    <vehicle id="t2_198" type="car" route="t2" depart="128" departSpeed="5"/>
    <vehicle id="NS_199" type="car" route="NS" depart="130" departSpeed="5"/>
    <vehicle id="EWBottom_200" type="car" route="EWBottom" depart="132" departSpeed="5"/>
    <vehicle id="t4_201" type="car" route="t4" depart="132" departSpeed="5"/>
    <vehicle id="t5_202" type="car" route="t5" depart="132" departSpeed="5"/>
    <vehicle id="t8_203" type="car" route="t8" depart="132" departSpeed="5"/>
    <vehicle id="EWTop_204" type="car" route="EWTop" depart="133" departSpeed="5"/>
    <vehicle id="SN_205" type="car" route="SN" depart="133" departSpeed="5"/>
    <vehicle id="WETop_206" type="car" route="WETop" depart="134" departSpeed="5"/>
    <vehicle id="t6_207" type="car" route="t6" depart="134" departSpeed="5"/>
    <vehicle id="EWTop_208" type="car" route="EWTop" depart="135" departSpeed="5"/>
    <vehicle id="NS_209" type="car" route="NS" depart="136" departSpeed="5"/>
    <vehicle id="EWTop_210" type="car" route="EWTop" depart="137" departSpeed="5"/>
    <vehicle id="EWBottom_211" type="car" route="EWBottom" depart="137" departSpeed="5"/>
    <vehicle id="t2_212" type="car" route="t2" depart="137" departSpeed="5"/>
    <vehicle id="t4_213" type="car" route="t4" depart="138" departSpeed="5"/>
    <vehicle id="t5_214" type="car" route="t5" depart="138" departSpeed="5"/>
    <vehicle id="t6_215" type="car" route="t6" depart="138" departSpeed="5"/>
    <vehicle id="t4_216" type="car" route="t4" depart="139" departSpeed="5"/>
    <vehicle id="t5_217" type="car" route="t5" depart="139" departSpeed="5"/>
    <vehicle id="t6_218" type="car" route="t6" depart="139" departSpeed="5"/>
    <vehicle id="t3_219" type="car" route="t3" depart="140" departSpeed="5"/>
    <vehicle id="EWTop_220" type="car" route="EWTop" depart="141" departSpeed="5"/>
    <vehicle id="t2_221" type="car" route="t2" depart="141" departSpeed="5"/>
    <vehicle id="t3_222" type="car" route="t3" depart="142" departSpeed="5"/>
    <vehicle id="EWBottom_223" type="car" route="EWBottom" depart="144" departSpeed="5"/>
    <vehicle id="NS_224" type="car" route="NS" depart="145" departSpeed="5"/>
    <vehicle id="t8_225" type="car" route="t8" depart="145" departSpeed="5"/>
    <vehicle id="EWBottom_226" type="car" route="EWBottom" depart="146" departSpeed="5"/>
    <vehicle id="WEBottom_227" type="car" route="WEBottom" depart="147" departSpeed="5"/>
    <vehicle id="t3_228" type="car" route="t3" depart="148" departSpeed="5"/>
    <vehicle id="t8_229" type="car" route="t8" depart="148" departSpeed="5"/>
    <vehicle id="NS_230" type="car" route="NS" depart="149" departSpeed="5"/>
    <vehicle id="SN_231" type="car" route="SN" depart="149" departSpeed="5"/>
    <vehicle id="t2_232" type="car" route="t2" depart="149" departSpeed="5"/>
    <vehicle id="EWBottom_233" type="car" route="EWBottom" depart="150" departSpeed="5"/>
    <vehicle id="t4_234" type="car" route="t4" depart="151" departSpeed="5"/>
    <vehicle id="t5_235" type="car" route="t5" depart="151" departSpeed="5"/>
    <vehicle id="t8_236" type="car" route="t8" depart="151" departSpeed="5"/>
    <vehicle id="t1_237" type="car" route="t1" depart="152" departSpeed="5"/>
    <vehicle id="t4_238" type="car" route="t4" depart="152" departSpeed="5"/>
    <vehicle id="t5_239" type="car" route="t5" depart="152" departSpeed="5"/>
    <vehicle id="t7_240" type="car" route="t7" depart="152" departSpeed="5"/>
    <vehicle id="WEBottom_241" type="car" route="WEBottom" depart="153" departSpeed="5"/>
    <vehicle id="EWTop_242" type="car" route="EWTop" depart="154" departSpeed="5"/>
    <vehicle id="SN_243" type="car" route="SN" depart="154" departSpeed="5"/>
    <vehicle id="WEBottom_244" type="car" route="WEBottom" depart="155" departSpeed="5"/>
    <vehicle id="WEBottom_245" type="car" route="WEBottom" depart="156" departSpeed="5"/>
    <vehicle id="t6_246" type="car" route="t6" depart="156" departSpeed="5"/>
    <vehicle id="t7_247" type="car" route="t7" depart="156" departSpeed="5"/>
    <vehicle id="EWBottom_248" type="car" route="EWBottom" depart="157" departSpeed="5"/>
    <vehicle id="NS_249" type="car" route="NS" depart="158" departSpeed="5"/>
    <vehicle id="WEBottom_250" type="car" route="WEBottom" depart="159" departSpeed="5"/>
    <vehicle id="NS_251" type="car" route="NS" depart="159" departSpeed="5"/>
    <vehicle id="t6_252" type="car" route="t6" depart="160" departSpeed="5"/>
    <vehicle id="t3_253" type="car" route="t3" depart="161" departSpeed="5"/>
    <vehicle id="SN_254" type="car" route="SN" depart="162" departSpeed="5"/>
    <vehicle id="t1_255" type="car" route="t1" depart="162" departSpeed="5"/>
    <vehicle id="t3_256" type="car" route="t3" depart="163" departSpeed="5"/>
    <vehicle id="t7_257" type="car" route="t7" depart="163" departSpeed="5"/>
    <vehicle id="WETop_258" type="car" route="WETop" depart="164" departSpeed="5"/>
    <vehicle id="EWBottom_259" type="car" route="EWBottom" depart="165" departSpeed="5"/>
    <vehicle id="EWBottom_260" type="car" route="EWBottom" depart="166" departSpeed="5"/>
    <vehicle id="NS_261" type="car" route="NS" depart="167" departSpeed="5"/>
    <vehicle id="t6_262" type="car" route="t6" depart="167" departSpeed="5"/>
    <vehicle id="t2_263" type="car" route="t2" depart="168" departSpeed="5"/>
    <vehicle id="t4_264" type="car" route="t4" depart="168" departSpeed="5"/>
    <vehicle id="t5_265" type="car" route="t5" depart="168" departSpeed="5"/>
    <vehicle id="t7_266" type="car" route="t7" depart="168" departSpeed="5"/>
    <vehicle id="t6_267" type="car" route="t6" depart="169" departSpeed="5"/>
    <vehicle id="WETop_268" type="car" route="WETop" depart="170" departSpeed="5"/>
    <vehicle id="WEBottom_269" type="car" route="WEBottom" depart="170" departSpeed="5"/>
    <vehicle id="EWBottom_270" type="car" route="EWBottom" depart="170" departSpeed="5"/>
    <vehicle id="NS_271" type="car" route="NS" depart="170" departSpeed="5"/>
    <vehicle id="t6_272" type="car" route="t6" depart="171" departSpeed="5"/>
    <vehicle id="t6_273" type="car" route="t6" depart="172" departSpeed="5"/>
    <vehicle id="t8_274" type="car" route="t8" depart="172" departSpeed="5"/>
    <vehicle id="WETop_275" type="car" route="WETop" depart="173" departSpeed="5"/>
    <vehicle id="t6_276" type="car" route="t6" depart="173" departSpeed="5"/>
    <vehicle id="t9_277" type="car" route="t9" depart="173" departSpeed="5"/>
    <vehicle id="t6_278" type="car" route="t6" depart="174" departSpeed="5"/>
    <vehicle id="WETop_279" type="car" route="WETop" depart="175" departSpeed="5"/>
    <vehicle id="EWBottom_280" type="car" route="EWBottom" depart="175" departSpeed="5"/>
    <vehicle id="SN_281" type="car" route="SN" depart="175" departSpeed="5"/>
    <vehicle id="t1_282" type="car" route="t1" depart="175" departSpeed="5"/>
    <vehicle id="t4_283" type="car" route="t4" depart="176" departSpeed="5"/>
    <vehicle id="t5_284" type="car" route="t5" depart="176" departSpeed="5"/>
    <vehicle id="t4_285" type="car" route="t4" depart="177" departSpeed="5"/>
    <vehicle id="t5_286" type="car" route="t5" depart="177" departSpeed="5"/>
    <vehicle id="t2_287" type="car" route="t2" depart="179" departSpeed="5"/>
    <vehicle id="EWBottom_288" type="car" route="EWBottom" depart="180" departSpeed="5"/>
    <vehicle id="t9_289" type="car" route="t9" depart="180" departSpeed="5"/>
    <vehicle id="EWTop_290" type="car" route="EWTop" depart="181" departSpeed="5"/>
    <vehicle id="WETop_291" type="car" route="WETop" depart="183" departSpeed="5"/>
    <vehicle id="t7_292" type="car" route="t7" depart="183" departSpeed="5"/>
    <vehicle id="t1_293" type="car" route="t1" depart="184" departSpeed="5"/>
    <vehicle id="NS_294" type="car" route="NS" depart="185" departSpeed="5"/>
    <vehicle id="t6_295" type="car" route="t6" depart="186" departSpeed="5"/>
    <vehicle id="t9_296" type="car" route="t9" depart="186" departSpeed="5"/>
    <vehicle id="t8_297" type="car" route="t8" depart="187" departSpeed="5"/>
    <vehicle id="NS_298" type="car" route="NS" depart="189" departSpeed="5"/>
    <vehicle id="t7_299" type="car" route="t7" depart="191" departSpeed="5"/>
    <vehicle id="WEBottom_300" type="car" route="WEBottom" depart="192" departSpeed="5"/>
    <vehicle id="EWTop_301" type="car" route="EWTop" depart="193" departSpeed="5"/>
    <vehicle id="NS_302" type="car" route="NS" depart="194" departSpeed="5"/>
    <vehicle id="t9_303" type="car" route="t9" depart="194" departSpeed="5"/>
    <vehicle id="t7_304" type="car" route="t7" depart="195" departSpeed="5"/>
    <vehicle id="t8_305" type="car" route="t8" depart="195" departSpeed="5"/>
    <vehicle id="WETop_306" type="car" route="WETop" depart="196" departSpeed="5"/>
    <vehicle id="EWBottom_307" type="car" route="EWBottom" depart="196" departSpeed="5"/>
    <vehicle id="t2_308" type="car" route="t2" depart="196" departSpeed="5"/>
    <vehicle id="SN_309" type="car" route="SN" depart="197" departSpeed="5"/>
    <vehicle id="t3_310" type="car" route="t3" depart="197" departSpeed="5"/>
    <vehicle id="EWTop_311" type="car" route="EWTop" depart="198" departSpeed="5"/>
    <vehicle id="t4_312" type="car" route="t4" depart="198" departSpeed="5"/>
    <vehicle id="t5_313" type="car" route="t5" depart="198" departSpeed="5"/>
    <vehicle id="WETop_314" type="car" route="WETop" depart="200" departSpeed="5"/>
    <vehicle id="t4_315" type="car" route="t4" depart="201" departSpeed="5"/>
    <vehicle id="t5_316" type="car" route="t5" depart="201" departSpeed="5"/>
    <vehicle id="EWTop_317" type="car" route="EWTop" depart="202" departSpeed="5"/>
    <vehicle id="WEBottom_318" type="car" route="WEBottom" depart="202" departSpeed="5"/>
    <vehicle id="SN_319" type="car" route="SN" depart="203" departSpeed="5"/>
    <vehicle id="t1_320" type="car" route="t1" depart="205" departSpeed="5"/>
    <vehicle id="t3_321" type="car" route="t3" depart="205" departSpeed="5"/>
    <vehicle id="t9_322" type="car" route="t9" depart="205" departSpeed="5"/>
    <vehicle id="t8_323" type="car" route="t8" depart="206" departSpeed="5"/>
    <vehicle id="t9_324" type="car" route="t9" depart="207" departSpeed="5"/>
    <vehicle id="WEBottom_325" type="car" route="WEBottom" depart="209" departSpeed="5"/>
    <vehicle id="t8_326" type="car" route="t8" depart="209" departSpeed="5"/>
    <vehicle id="t1_327" type="car" route="t1" depart="210" departSpeed="5"/>
    <vehicle id="NS_328" type="car" route="NS" depart="211" departSpeed="5"/>
    <vehicle id="t4_329" type="car" route="t4" depart="211" departSpeed="5"/>
    <vehicle id="t5_330" type="car" route="t5" depart="211" departSpeed="5"/>
    <vehicle id="t6_331" type="car" route="t6" depart="211" departSpeed="5"/>
    <vehicle id="t2_332" type="car" route="t2" depart="212" departSpeed="5"/>
    <vehicle id="t4_333" type="car" route="t4" depart="213" departSpeed="5"/>
    <vehicle id="t5_334" type="car" route="t5" depart="213" departSpeed="5"/>
    <vehicle id="t8_335" type="car" route="t8" depart="214" departSpeed="5"/>
    <vehicle id="t3_336" type="car" route="t3" depart="215" departSpeed="5"/>
    <vehicle id="t2_337" type="car" route="t2" depart="216" departSpeed="5"/>
    <vehicle id="t3_338" type="car" route="t3" depart="216" departSpeed="5"/>
    <vehicle id="t6_339" type="car" route="t6" depart="216" departSpeed="5"/>
    <vehicle id="t8_340" type="car" route="t8" depart="216" departSpeed="5"/>
    <vehicle id="t9_341" type="car" route="t9" depart="216" departSpeed="5"/>
    <vehicle id="t6_342" type="car" route="t6" depart="217" departSpeed="5"/>
    <vehicle id="EWBottom_343" type="car" route="EWBottom" depart="218" departSpeed="5"/>
    <vehicle id="NS_344" type="car" route="NS" depart="218" departSpeed="5"/>
    <vehicle id="t7_345" type="car" route="t7" depart="218" departSpeed="5"/>
    <vehicle id="WETop_346" type="car" route="WETop" depart="219" departSpeed="5"/>
    <vehicle id="NS_347" type="car" route="NS" depart="219" departSpeed="5"/>
    <vehicle id="t3_348" type="car" route="t3" depart="219" departSpeed="5"/>
    <vehicle id="t4_349" type="car" route="t4" depart="219" departSpeed="5"/>
    <vehicle id="t5_350" type="car" route="t5" depart="219" departSpeed="5"/>
    <vehicle id="EWTop_351" type="car" route="EWTop" depart="222" departSpeed="5"/>
    <vehicle id="t4_352" type="car" route="t4" depart="223" departSpeed="5"/>
    <vehicle id="t5_353" type="car" route="t5" depart="223" departSpeed="5"/>
    <vehicle id="t7_354" type="car" route="t7" depart="223" departSpeed="5"/>
    <vehicle id="WEBottom_355" type="car" route="WEBottom" depart="224" departSpeed="5"/>
    <vehicle id="EWBottom_356" type="car" route="EWBottom" depart="224" departSpeed="5"/>
    <vehicle id="t7_357" type="car" route="t7" depart="224" departSpeed="5"/>
    <vehicle id="EWTop_358" type="car" route="EWTop" depart="227" departSpeed="5"/>
    <vehicle id="NS_359" type="car" route="NS" depart="227" departSpeed="5"/>