<routes>
                               <vType id="car" accel="2.0" decel="8.5" sigma="0.7" length="5" minGap="3" maxSpeed="30" guiShape="passenger"/>

                               <route id="WETop" edges="5i 1i 2o" />
                               <route id="EWTop" edges="2i 1o 5o" />
                               <route id="NS" edges="4i 3o 8i" />
                               <route id="SN" edges="8o 3i 4o" />
                               <route id="WEBottom" edges="7o 11o" />
                               <route id="EWBottom" edges="11i 7i" />

                               <route id="t2" edges="8o 7i" />
                               <route id="t3" edges="4i 1o 6i" />
                               <route id="t4" edges="7o 3i 2o" />
                               <route id="t5" edges="6o 1i 4o" />
                               <route id="t6" edges="5i 1i 3o 11o" />
                               
    <vehicle id="EWBottom_0" type="car" route="EWBottom" depart="0" departSpeed="15"/>
    <vehicle id="t2_1" type="car" route="t2" depart="4" departSpeed="15"/>
    <vehicle id="t4_2" type="car" route="t4" depart="9" departSpeed="15"/>
    <vehicle id="WEBottom_3" type="car" route="WEBottom" depart="10" departSpeed="15"/>
    <vehicle id="NS_4" type="car" route="NS" depart="14" departSpeed="15"/>
    <vehicle id="EWTop_5" type="car" route="EWTop" depart="16" departSpeed="15"/>
    <vehicle id="NS_6" type="car" route="NS" depart="19" departSpeed="15"/>
    <vehicle id="t2_7" type="car" route="t2" depart="19" departSpeed="15"/>
    <vehicle id="t5_8" type="car" route="t5" depart="19" departSpeed="15"/>
    <vehicle id="t5_9" type="car" route="t5" depart="20" departSpeed="15"/>
    <vehicle id="t3_10" type="car" route="t3" depart="22" departSpeed="15"/>
    <vehicle id="t4_11" type="car" route="t4" depart="25" departSpeed="15"/>
    <vehicle id="WETop_12" type="car" route="WETop" depart="26" departSpeed="15"/>
    <vehicle id="t4_13" type="car" route="t4" depart="29" departSpeed="15"/>
    <vehicle id="NS_14" type="car" route="NS" depart="31" departSpeed="15"/>
    <vehicle id="SN_15" type="car" route="SN" depart="31" departSpeed="15"/>
    <vehicle id="t2_16" type="car" route="t2" depart="31" departSpeed="15"/>
    <vehicle id="WEBottom_17" type="car" route="WEBottom" depart="33" departSpeed="15"/>
    <vehicle id="t6_18" type="car" route="t6" depart="34" departSpeed="15"/>
    <vehicle id="WETop_19" type="car" route="WETop" depart="38" departSpeed="15"/>
    <vehicle id="NS_20" type="car" route="NS" depart="38" departSpeed="15"/>
    <vehicle id="SN_21" type="car" route="SN" depart="38" departSpeed="15"/>
    <vehicle id="WETop_22" type="car" route="WETop" depart="39" departSpeed="15"/>
    <vehicle id="t3_23" type="car" route="t3" depart="40" departSpeed="15"/>
    <vehicle id="t5_24" type="car" route="t5" depart="41" departSpeed="15"/>
    <vehicle id="SN_25" type="car" route="SN" depart="45" departSpeed="15"/>
    <vehicle id="t3_26" type="car" route="t3" depart="45" departSpeed="15"/>
    <vehicle id="SN_27" type="car" route="SN" depart="47" departSpeed="15"/>
    <vehicle id="t6_28" type="car" route="t6" depart="49" departSpeed="15"/>
    <vehicle id="t3_29" type="car" route="t3" depart="51" departSpeed="15"/>
    <vehicle id="WETop_30" type="car" route="WETop" depart="53" departSpeed="15"/>
    <vehicle id="t5_31" type="car" route="t5" depart="56" departSpeed="15"/>
    <vehicle id="t5_32" type="car" route="t5" depart="59" departSpeed="15"/>
    <vehicle id="t3_33" type="car" route="t3" depart="60" departSpeed="15"/>
    <vehicle id="SN_34" type="car" route="SN" depart="61" departSpeed="15"/>
    <vehicle id="t3_35" type="car" route="t3" depart="62" departSpeed="15"/>
    <vehicle id="NS_36" type="car" route="NS" depart="65" departSpeed="15"/>
    <vehicle id="NS_37" type="car" route="NS" depart="66" departSpeed="15"/>
    <vehicle id="t2_38" type="car" route="t2" depart="67" departSpeed="15"/>
    <vehicle id="WEBottom_39" type="car" route="WEBottom" depart="68" departSpeed="15"/>
    <vehicle id="t6_40" type="car" route="t6" depart="68" departSpeed="15"/>
    <vehicle id="t3_41" type="car" route="t3" depart="74" departSpeed="15"/>
    <vehicle id="WEBottom_42" type="car" route="WEBottom" depart="76" departSpeed="15"/>
    <vehicle id="EWBottom_43" type="car" route="EWBottom" depart="79" departSpeed="15"/>
    <vehicle id="WEBottom_44" type="car" route="WEBottom" depart="87" departSpeed="15"/>
    <vehicle id="NS_45" type="car" route="NS" depart="87" departSpeed="15"/>
    <vehicle id="WETop_46" type="car" route="WETop" depart="88" departSpeed="15"/>
    <vehicle id="t6_47" type="car" route="t6" depart="88" departSpeed="15"/>
    <vehicle id="t5_48" type="car" route="t5" depart="89" departSpeed="15"/>
    <vehicle id="t6_49" type="car" route="t6" depart="89" departSpeed="15"/>
    <vehicle id="WEBottom_50" type="car" route="WEBottom" depart="90" departSpeed="15"/>
    <vehicle id="EWBottom_51" type="car" route="EWBottom" depart="91" departSpeed="15"/>
    <vehicle id="EWTop_52" type="car" route="EWTop" depart="93" departSpeed="15"/>
    <vehicle id="NS_53" type="car" route="NS" depart="95" departSpeed="15"/>
    <vehicle id="t2_54" type="car" route="t2" depart="97" departSpeed="15"/>
    <vehicle id="SN_55" type="car" route="SN" depart="100" departSpeed="15"/>
    <vehicle id="t2_56" type="car" route="t2" depart="100" departSpeed="15"/>
    <vehicle id="t3_57" type="car" route="t3" depart="100" departSpeed="15"/>
    <vehicle id="t4_58" type="car" route="t4" depart="102" departSpeed="15"/>
    <vehicle id="EWBottom_59" type="car" route="EWBottom" depart="105" departSpeed="15"/>
    <vehicle id="t4_60" type="car" route="t4" depart="110" departSpeed="15"/>
    <vehicle id="t4_61" type="car" route="t4" depart="113" departSpeed="15"/>
    <vehicle id="NS_62" type="car" route="NS" depart="117" departSpeed="15"/>
    <vehicle id="EWBottom_63" type="car" route="EWBottom" depart="118" departSpeed="15"/>
    <vehicle id="WEBottom_64" type="car" route="WEBottom" depart="121" departSpeed="15"/>
    <vehicle id="t3_65" type="car" route="t3" depart="121" departSpeed="15"/>
    <vehicle id="SN_66" type="car" route="SN" depart="122" departSpeed="15"/>
    <vehicle id="WETop_67" type="car" route="WETop" depart="123" departSpeed="15"/>
    <vehicle id="WETop_68" type="car" route="WETop" depart="128" departSpeed="15"/>
    <vehicle id="t4_69" type="car" route="t4" depart="128" departSpeed="15"/>
    <vehicle id="WEBottom_70" type="car" route="WEBottom" depart="130" departSpeed="15"/>
    <vehicle id="SN_71" type="car" route="SN" depart="131" departSpeed="15"/>
    <vehicle id="t3_72" type="car" route="t3" depart="131" departSpeed="15"/>
    <vehicle id="WETop_73" type="car" route="WETop" depart="132" departSpeed="15"/>
    <vehicle id="WEBottom_74" type="car" route="WEBottom" depart="132" departSpeed="15"/>
    <vehicle id="NS_75" type="car" route="NS" depart="133" departSpeed="15"/>
    <vehicle id="t2_76" type="car" route="t2" depart="133" departSpeed="15"/>
    <vehicle id="EWTop_77" type="car" route="EWTop" depart="141" departSpeed="15"/>
    <vehicle id="NS_78" type="car" route="NS" depart="147" departSpeed="15"/>
    <vehicle id="t6_79" type="car" route="t6" depart="150" departSpeed="15"/>
    <vehicle id="EWBottom_80" type="car" route="EWBottom" depart="153" departSpeed="15"/>
    <vehicle id="EWTop_81" type="car" route="EWTop" depart="156" departSpeed="15"/>
    <vehicle id="NS_82" type="car" route="NS" depart="156" departSpeed="15"/>
    <vehicle id="t4_83" type="car" route="t4" depart="161" departSpeed="15"/>
    <vehicle id="WEBottom_84" type="car" route="WEBottom" depart="162" departSpeed="15"/>
    <vehicle id="t5_85" type="car" route="t5" depart="162" departSpeed="15"/>
    <vehicle id="t2_86" type="car" route="t2" depart="165" departSpeed="15"/>
    <vehicle id="t2_87" type="car" route="t2" depart="167" departSpeed="15"/>
    <vehicle id="WETop_88" type="car" route="WETop" depart="168" departSpeed="15"/>
    <vehicle id="t5_89" type="car" route="t5" depart="169" departSpeed="15"/>
    <vehicle id="t4_90" type="car" route="t4" depart="172" departSpeed="15"/>
    <vehicle id="t6_91" type="car" route="t6" depart="172" departSpeed="15"/>
    <vehicle id="NS_92" type="car" route="NS" depart="174" departSpeed="15"/>
    <vehicle id="EWTop_93" type="car" route="EWTop" depart="175" departSpeed="15"/>
    <vehicle id="t3_94" type="car" route="t3" depart="176" departSpeed="15"/>
    <vehicle id="t6_95" type="car" route="t6" depart="179" departSpeed="15"/>
    <vehicle id="NS_96" type="car" route="NS" depart="180" departSpeed="15"/>
    <vehicle id="t4_97" type="car" route="t4" depart="180" departSpeed="15"/>
    <vehicle id="SN_98" type="car" route="SN" depart="181" departSpeed="15"/>
    <vehicle id="SN_99" type="car" route="SN" depart="182" departSpeed="15"/>
    <vehicle id="t5_100" type="car" route="t5" depart="188" departSpeed="15"/>
    <vehicle id="EWTop_101" type="car" route="EWTop" depart="190" departSpeed="15"/>
    <vehicle id="NS_102" type="car" route="NS" depart="201" departSpeed="15"/>
    <vehicle id="t2_103" type="car" route="t2" depart="203" departSpeed="15"/>
    <vehicle id="t4_104" type="car" route="t4" depart="204" departSpeed="15"/>
    <vehicle id="EWTop_105" type="car" route="EWTop" depart="207" departSpeed="15"/>
    <vehicle id="t2_106" type="car" route="t2" depart="208" departSpeed="15"/>
    <vehicle id="SN_107" type="car" route="SN" depart="211" departSpeed="15"/>
    <vehicle id="t2_108" type="car" route="t2" depart="221" departSpeed="15"/>
    <vehicle id="t3_109" type="car" route="t3" depart="221" departSpeed="15"/>
    <vehicle id="EWTop_110" type="car" route="EWTop" depart="223" departSpeed="15"/>
    <vehicle id="t5_111" type="car" route="t5" depart="225" departSpeed="15"/>
    <vehicle id="t3_112" type="car" route="t3" depart="227" departSpeed="15"/>
    <vehicle id="SN_113" type="car" route="SN" depart="232" departSpeed="15"/>
    <vehicle id="t6_114" type="car" route="t6" depart="237" departSpeed="15"/>
    <vehicle id="SN_115" type="car" route="SN" depart="238" departSpeed="15"/>
    <vehicle id="t2_116" type="car" route="t2" depart="239" departSpeed="15"/>
    <vehicle id="t5_117" type="car" route="t5" depart="239" departSpeed="15"/>
    <vehicle id="SN_118" type="car" route="SN" depart="240" departSpeed="15"/>
    <vehicle id="EWTop_119" type="car" route="EWTop" depart="241" departSpeed="15"/>
    <vehicle id="t5_120" type="car" route="t5" depart="242" departSpeed="15"/>
    <vehicle id="t6_121" type="car" route="t6" depart="248" departSpeed="15"/>
    <vehicle id="t4_122" type="car" route="t4" depart="253" departSpeed="15"/>
    <vehicle id="EWBottom_123" type="car" route="EWBottom" depart="254" departSpeed="15"/>
    <vehicle id="NS_124" type="car" route="NS" depart="255" departSpeed="15"/>
    <vehicle id="WEBottom_125" type="car" route="WEBottom" depart="256" departSpeed="15"/>
    <vehicle id="EWBottom_126" type="car" route="EWBottom" depart="257" departSpeed="15"/>
    <vehicle id="EWTop_127" type="car" route="EWTop" depart="258" departSpeed="15"/>
    <vehicle id="NS_128" type="car" route="NS" depart="258" departSpeed="15"/>
    <vehicle id="t6_129" type="car" route="t6" depart="258" departSpeed="15"/>
    <vehicle id="NS_130" type="car" route="NS" depart="261" departSpeed="15"/>
    <vehicle id="SN_131" type="car" route="SN" depart="266" departSpeed="15"/>
    <vehicle id="WEBottom_132" type="car" route="WEBottom" depart="267" departSpeed="15"/>
    <vehicle id="EWTop_133" type="car" route="EWTop" depart="272" departSpeed="15"/>
    <vehicle id="t6_134" type="car" route="t6" depart="272" departSpeed="15"/>
    <vehicle id="EWTop_135" type="car" route="EWTop" depart="274" departSpeed="15"/>
    <vehicle id="EWBottom_136" type="car" route="EWBottom" depart="274" departSpeed="15"/>
    <vehicle id="WEBottom_137" type="car" route="WEBottom" depart="276" departSpeed="15"/>
    <vehicle id="SN_138" type="car" route="SN" depart="277" departSpeed="15"/>
    <vehicle id="EWTop_139" type="car" route="EWTop" depart="279" departSpeed="15"/>
    <vehicle id="WEBottom_140" type="car" route="WEBottom" depart="281" departSpeed="15"/>
    <vehicle id="NS_141" type="car" route="NS" depart="282" departSpeed="15"/>
    <vehicle id="t3_142" type="car" route="t3" depart="283" departSpeed="15"/>
    <vehicle id="SN_143" type="car" route="SN" depart="284" departSpeed="15"/>
    <vehicle id="t3_144" type="car" route="t3" depart="285" departSpeed="15"/>
    <vehicle id="t3_145" type="car" route="t3" depart="289" departSpeed="15"/>
    <vehicle id="t5_146" type="car" route="t5" depart="291" departSpeed="15"/>
    <vehicle id="EWTop_147" type="car" route="EWTop" depart="293" departSpeed="15"/>
    <vehicle id="EWBottom_148" type="car" route="EWBottom" depart="293" departSpeed="15"/>
    <vehicle id="t5_149" type="car" route="t5" depart="293" departSpeed="15"/>
    <vehicle id="t6_150" type="car" route="t6" depart="298" departSpeed="15"/>
    <vehicle id="WETop_151" type="car" route="WETop" depart="299" departSpeed="15"/>
    <vehicle id="t2_152" type="car" route="t2" depart="299" departSpeed="15"/>
    <vehicle id="EWTop_153" type="car" route="EWTop" depart="300" departSpeed="15"/>
    <vehicle id="t2_154" type="car" route="t2" depart="300" departSpeed="15"/>
    <vehicle id="t6_155" type="car" route="t6" depart="303" departSpeed="15"/>
    <vehicle id="t3_156" type="car" route="t3" depart="304" departSpeed="15"/>
    <vehicle id="t6_157" type="car" route="t6" depart="307" departSpeed="15"/>
    <vehicle id="NS_158" type="car" route="NS" depart="309" departSpeed="15"/>
    <vehicle id="t2_159" type="car" route="t2" depart="310" departSpeed="15"/>
    <vehicle id="EWBottom_160" type="car" route="EWBottom" depart="312" departSpeed="15"/>
    <vehicle id="EWTop_161" type="car" route="EWTop" depart="313" departSpeed="15"/>
    <vehicle id="t6_162" type="car" route="t6" depart="313" departSpeed="15"/>
    <vehicle id="EWTop_163" type="car" route="EWTop" depart="315" departSpeed="15"/>
    <vehicle id="EWBottom_164" type="car" route="EWBottom" depart="320" departSpeed="15"/>
    <vehicle id="EWBottom_165" type="car" route="EWBottom" depart="321" departSpeed="15"/>
    <vehicle id="t2_166" type="car" route="t2" depart="323" departSpeed="15"/>
    <vehicle id="WEBottom_167" type="car" route="WEBottom" depart="324" departSpeed="15"/>
    <vehicle id="t2_168" type="car" route="t2" depart="328" departSpeed="15"/>
    <vehicle id="EWTop_169" type="car" route="EWTop" depart="331" departSpeed="15"/>
    <vehicle id="NS_170" type="car" route="NS" depart="331" departSpeed="15"/>
    <vehicle id="t4_171" type="car" route="t4" depart="334" departSpeed="15"/>
    <vehicle id="t4_172" type="car" route="t4" depart="336" departSpeed="15"/>
    <vehicle id="EWBottom_173" type="car" route="EWBottom" depart="338" departSpeed="15"/>
    <vehicle id="t3_174" type="car" route="t3" depart="339" departSpeed="15"/>
    <vehicle id="WEBottom_175" type="car" route="WEBottom" depart="340" departSpeed="15"/>
    <vehicle id="WETop_176" type="car" route="WETop" depart="341" departSpeed="15"/>
    <vehicle id="EWTop_177" type="car" route="EWTop" depart="341" departSpeed="15"/>
    <vehicle id="t2_178" type="car" route="t2" depart="342" departSpeed="15"/>
    <vehicle id="NS_179" type="car" route="NS" depart="343" departSpeed="15"/>
    <vehicle id="SN_180" type="car" route="SN" depart="347" departSpeed="15"/>
    <vehicle id="t6_181" type="car" route="t6" depart="349" departSpeed="15"/>
    <vehicle id="EWTop_182" type="car" route="EWTop" depart="352" departSpeed="15"/>
    <vehicle id="SN_183" type="car" route="SN" depart="354" departSpeed="15"/>
    <vehicle id="t2_184" type="car" route="t2" depart="355" departSpeed="15"/>
    <vehicle id="EWBottom_185" type="car" route="EWBottom" depart="361" departSpeed="15"/>
    <vehicle id="t4_186" type="car" route="t4" depart="361" departSpeed="15"/>
    <vehicle id="t5_187" type="car" route="t5" depart="361" departSpeed="15"/>
    <vehicle id="EWTop_188" type="car" route="EWTop" depart="362" departSpeed="15"/>
    <vehicle id="EWTop_189" type="car" route="EWTop" depart="371" departSpeed="15"/>
    <vehicle id="EWTop_190" type="car" route="EWTop" depart="374" departSpeed="15"/>
    <vehicle id="t2_191" type="car" route="t2" depart="374" departSpeed="15"/>
    <vehicle id="t3_192" type="car" route="t3" depart="374" departSpeed="15"/>
    <vehicle id="WEBottom_193" type="car" route="WEBottom" depart="375" departSpeed="15"/>
    <vehicle id="WETop_194" type="car" route="WETop" depart="377" departSpeed="15"/>
    <vehicle id="WETop_195" type="car" route="WETop" depart="378" departSpeed="15"/>
    <vehicle id="SN_196" type="car" route="SN" depart="378" departSpeed="15"/>
    <vehicle id="EWTop_197" type="car" route="EWTop" depart="380" departSpeed="15"/>
    <vehicle id="t2_198" type="car" route="t2" depart="381" departSpeed="15"/>
    <vehicle id="t4_199" type="car" route="t4" depart="383" departSpeed="15"/>
    <vehicle id="t5_200" type="car" route="t5" depart="383" departSpeed="15"/>
    <vehicle id="t3_201" type="car" route="t3" depart="385" departSpeed="15"/>
    <vehicle id="t3_202" type="car" route="t3" depart="386" departSpeed="15"/>
    <vehicle id="t4_203" type="car" route="t4" depart="395" departSpeed="15"/>
    <vehicle id="t5_204" type="car" route="t5" depart="397" departSpeed="15"/>
    <vehicle id="t6_205" type="car" route="t6" depart="399" departSpeed="15"/>
    <vehicle id="EWBottom_206" type="car" route="EWBottom" depart="401" departSpeed="15"/>
    <vehicle id="t3_207" type="car" route="t3" depart="403" departSpeed="15"/>
    <vehicle id="EWBottom_208" type="car" route="EWBottom" depart="409" departSpeed="15"/>
    <vehicle id="t5_209" type="car" route="t5" depart="410" departSpeed="15"/>
    <vehicle id="t5_210" type="car" route="t5" depart="412" departSpeed="15"/>
    <vehicle id="t2_211" type="car" route="t2" depart="414" departSpeed="15"/>
    <vehicle id="SN_212" type="car" route="SN" depart="416" departSpeed="15"/>
    <vehicle id="SN_213" type="car" route="SN" depart="419" departSpeed="15"/>
    <vehicle id="SN_214" type="car" route="SN" depart="421" departSpeed="15"/>
    <vehicle id="WETop_215" type="car" route="WETop" depart="429" departSpeed="15"/>
    <vehicle id="WEBottom_216" type="car" route="WEBottom" depart="430" departSpeed="15"/>
    <vehicle id="WETop_217" type="car" route="WETop" depart="433" departSpeed="15"/>
    <vehicle id="t6_218" type="car" route="t6" depart="433" departSpeed="15"/>
    <vehicle id="WETop_219" type="car" route="WETop" depart="435" departSpeed="15"/>
    <vehicle id="WEBottom_220" type="car" route="WEBottom" depart="435" departSpeed="15"/>
    <vehicle id="t5_221" type="car" route="t5" depart="438" departSpeed="15"/>
    <vehicle id="t5_222" type="car" route="t5" depart="441" departSpeed="15"/>
    <vehicle id="WETop_223" type="car" route="WETop" depart="442" departSpeed="15"/>
    <vehicle id="t3_224" type="car" route="t3" depart="445" departSpeed="15"/>
    <vehicle id="t2_225" type="car" route="t2" depart="450" departSpeed="15"/>
    <vehicle id="WETop_226" type="car" route="WETop" depart="455" departSpeed="15"/>
    <vehicle id="NS_227" type="car" route="NS" depart="458" departSpeed="15"/>
    <vehicle id="SN_228" type="car" route="SN" depart="459" departSpeed="15"/>
    <vehicle id="SN_229" type="car" route="SN" depart="464" departSpeed="15"/>
    <vehicle id="WETop_230" type="car" route="WETop" depart="469" departSpeed="15"/>
    <vehicle id="EWTop_231" type="car" route="EWTop" depart="472" departSpeed="15"/>
    <vehicle id="t5_232" type="car" route="t5" depart="472" departSpeed="15"/>
    <vehicle id="SN_233" type="car" route="SN" depart="475" departSpeed="15"/>
    <vehicle id="EWBottom_234" type="car" route="EWBottom" depart="482" departSpeed="15"/>
    <vehicle id="EWBottom_235" type="car" route="EWBottom" depart="484" departSpeed="15"/>
    <vehicle id="EWBottom_236" type="car" route="EWBottom" depart="493" departSpeed="15"/>
    <vehicle id="t5_237" type="car" route="t5" depart="493" departSpeed="15"/>
    <vehicle id="WETop_238" type="car" route="WETop" depart="494" departSpeed="15"/>
    <vehicle id="t4_239" type="car" route="t4" depart="494" departSpeed="15"/>
    <vehicle id="EWTop_240" type="car" route="EWTop" depart="495" departSpeed="15"/>
    <vehicle id="EWTop_241" type="car" route="EWTop" depart="497" departSpeed="15"/>
    <vehicle id="t2_242" type="car" route="t2" depart="497" departSpeed="15"/>
    <vehicle id="t6_243" type="car" route="t6" depart="497" departSpeed="15"/>
    <vehicle id="SN_244" type="car" route="SN" depart="498" departSpeed="15"/>
    <vehicle id="t2_245" type="car" route="t2" depart="498" departSpeed="15"/>
    <vehicle id="EWTop_246" type="car" route="EWTop" depart="499" departSpeed="15"/>
    <vehicle id="t6_247" type="car" route="t6" depart="500" departSpeed="15"/>
    <vehicle id="t5_248" type="car" route="t5" depart="504" departSpeed="15"/>
    <vehicle id="WETop_249" type="car" route="WETop" depart="509" departSpeed="15"/>
    <vehicle id="t5_250" type="car" route="t5" depart="512" departSpeed="15"/>
    <vehicle id="EWTop_251" type="car" route="EWTop" depart="515" departSpeed="15"/>
    <vehicle id="NS_252" type="car" route="NS" depart="515" departSpeed="15"/>
    <vehicle id="t2_253" type="car" route="t2" depart="516" departSpeed="15"/>
    <vehicle id="t4_254" type="car" route="t4" depart="518" departSpeed="15"/>
    <vehicle id="SN_255" type="car" route="SN" depart="520" departSpeed="15"/>
    <vehicle id="WEBottom_256" type="car" route="WEBottom" depart="526" departSpeed="15"/>
    <vehicle id="EWTop_257" type="car" route="EWTop" depart="528" departSpeed="15"/>
    <vehicle id="t5_258" type="car" route="t5" depart="528" departSpeed="15"/>
    <vehicle id="NS_259" type="car" route="NS" depart="530" departSpeed="15"/>
    <vehicle id="t2_260" type="car" route="t2" depart="531" departSpeed="15"/>
    <vehicle id="WETop_261" type="car" route="WETop" depart="532" departSpeed="15"/>
    <vehicle id="t4_262" type="car" route="t4" depart="533" departSpeed="15"/>
    <vehicle id="EWTop_263" type="car" route="EWTop" depart="537" departSpeed="15"/>
    <vehicle id="WEBottom_264" type="car" route="WEBottom" depart="541" departSpeed="15"/>
    <vehicle id="NS_265" type="car" route="NS" depart="541" departSpeed="15"/>
    <vehicle id="t3_266" type="car" route="t3" depart="544" departSpeed="15"/>
    <vehicle id="SN_267" type="car" route="SN" depart="545" departSpeed="15"/>
    <vehicle id="NS_268" type="car" route="NS" depart="546" departSpeed="15"/>
    <vehicle id="t3_269" type="car" route="t3" depart="546" departSpeed="15"/>
    <vehicle id="EWBottom_270" type="car" route="EWBottom" depart="552" departSpeed="15"/>
    <vehicle id="t4_271" type="car" route="t4" depart="554" departSpeed="15"/>
    <vehicle id="t2_272" type="car" route="t2" depart="561" departSpeed="15"/>
    <vehicle id="NS_273" type="car" route="NS" depart="563" departSpeed="15"/>
    <vehicle id="t2_274" type="car" route="t2" depart="563" departSpeed="15"/>
    <vehicle id="t6_275" type="car" route="t6" depart="563" departSpeed="15"/>
    <vehicle id="SN_276" type="car" route="SN" depart="565" departSpeed="15"/>
    <vehicle id="t2_277" type="car" route="t2" depart="566" departSpeed="15"/>
    <vehicle id="t3_278" type="car" route="t3" depart="567" departSpeed="15"/>
    <vehicle id="WETop_279" type="car" route="WETop" depart="569" departSpeed="15"/>
    <vehicle id="SN_280" type="car" route="SN" depart="570" departSpeed="15"/>
    <vehicle id="t3_281" type="car" route="t3" depart="570" departSpeed="15"/>
    <vehicle id="t6_282" type="car" route="t6" depart="570" departSpeed="15"/>
    <vehicle id="t2_283" type="car" route="t2" depart="573" departSpeed="15"/>
    <vehicle id="WETop_284" type="car" route="WETop" depart="577" departSpeed="15"/>
    <vehicle id="t4_285" type="car" route="t4" depart="577" departSpeed="15"/>
    <vehicle id="NS_286" type="car" route="NS" depart="581" departSpeed="15"/>
    <vehicle id="EWBottom_287" type="car" route="EWBottom" depart="583" departSpeed="15"/>
    <vehicle id="NS_288" type="car" route="NS" depart="584" departSpeed="15"/>
    <vehicle id="t3_289" type="car" route="t3" depart="584" departSpeed="15"/>
    <vehicle id="EWTop_290" type="car" route="EWTop" depart="585" departSpeed="15"/>
    <vehicle id="SN_291" type="car" route="SN" depart="587" departSpeed="15"/>
    <vehicle id="WETop_292" type="car" route="WETop" depart="588" departSpeed="15"/>
    <vehicle id="EWTop_293" type="car" route="EWTop" depart="596" departSpeed="15"/>
    <vehicle id="WETop_294" type="car" route="WETop" depart="597" departSpeed="15"/>
    <vehicle id="t6_295" type="car" route="t6" depart="598" departSpeed="15"/>
    <vehicle id="EWBottom_296" type="car" route="EWBottom" depart="600" departSpeed="15"/>
    <vehicle id="NS_297" type="car" route="NS" depart="601" departSpeed="15"/>
    <vehicle id="t6_298" type="car" route="t6" depart="603" departSpeed="15"/>
    <vehicle id="EWBottom_299" type="car" route="EWBottom" depart="605" departSpeed="15"/>
    <vehicle id="t3_300" type="car" route="t3" depart="611" departSpeed="15"/>
    <vehicle id="EWBottom_301" type="car" route="EWBottom" depart="612" departSpeed="15"/>
    <vehicle id="t2_302" type="car" route="t2" depart="616" departSpeed="15"/>
    <vehicle id="WEBottom_303" type="car" route="WEBottom" depart="619" departSpeed="15"/>
    <vehicle id="t2_304" type="car" route="t2" depart="619" departSpeed="15"/>
    <vehicle id="EWTop_305" type="car" route="EWTop" depart="620" departSpeed="15"/>
    <vehicle id="EWBottom_306" type="car" route="EWBottom" depart="623" departSpeed="15"/>
    <vehicle id="t3_307" type="car" route="t3" depart="623" departSpeed="15"/>
    <vehicle id="t2_308" type="car" route="t2" depart="627" departSpeed="15"/>
    <vehicle id="SN_309" type="car" route="SN" depart="628" departSpeed="15"/>
    <vehicle id="SN_310" type="car" route="SN" depart="630" departSpeed="15"/>
    <vehicle id="t6_311" type="car" route="t6" depart="630" departSpeed="15"/>
    <vehicle id="t3_312" type="car" route="t3" depart="632" departSpeed="15"/>
    <vehicle id="WETop_313" type="car" route="WETop" depart="636" departSpeed="15"/>
    <vehicle id="t6_314" type="car" route="t6" depart="637" departSpeed="15"/>
    <vehicle id="WETop_315" type="car" route="WETop" depart="639" departSpeed="15"/>
    <vehicle id="NS_316" type="car" route="NS" depart="639" departSpeed="15"/>
    <vehicle id="t3_317" type="car" route="t3" depart="640" departSpeed="15"/>
    <vehicle id="t5_318" type="car" route="t5" depart="643" departSpeed="15"/>
    <vehicle id="NS_319" type="car" route="NS" depart="644" departSpeed="15"/>
    <vehicle id="t5_320" type="car" route="t5" depart="645" departSpeed="15"/>
    <vehicle id="WETop_321" type="car" route="WETop" depart="648" departSpeed="15"/>
    <vehicle id="EWTop_322" type="car" route="EWTop" depart="651" departSpeed="15"/>
    <vehicle id="t5_323" type="car" route="t5" depart="651" departSpeed="15"/>
    <vehicle id="SN_324" type="car" route="SN" depart="652" departSpeed="15"/>
    <vehicle id="t6_325" type="car" route="t6" depart="652" departSpeed="15"/>
    <vehicle id="t5_326" type="car" route="t5" depart="653" departSpeed="15"/>
    <vehicle id="WEBottom_327" type="car" route="WEBottom" depart="655" departSpeed="15"/>
    <vehicle id="t3_328" type="car" route="t3" depart="655" departSpeed="15"/>
    <vehicle id="t4_329" type="car" route="t4" depart="655" departSpeed="15"/>
    <vehicle id="WETop_330" type="car" route="WETop" depart="656" departSpeed="15"/>
    <vehicle id="t5_331" type="car" route="t5" depart="663" departSpeed="15"/>
    <vehicle id="t4_332" type="car" route="t4" depart="665" departSpeed="15"/>
    <vehicle id="EWTop_333" type="car" route="EWTop" depart="667" departSpeed="15"/>
    <vehicle id="t4_334" type="car" route="t4" depart="669" departSpeed="15"/>
    <vehicle id="t6_335" type="car" route="t6" depart="670" departSpeed="15"/>
    <vehicle id="NS_336" type="car" route="NS" depart="671" departSpeed="15"/>
    <vehicle id="t3_337" type="car" route="t3" depart="671" departSpeed="15"/>
    <vehicle id="WEBottom_338" type="car" route="WEBottom" depart="672" departSpeed="15"/>
    <vehicle id="EWBottom_339" type="car" route="EWBottom" depart="674" departSpeed="15"/>
    <vehicle id="t6_340" type="car" route="t6" depart="675" departSpeed="15"/>
    <vehicle id="NS_341" type="car" route="NS" depart="679" departSpeed="15"/>
    <vehicle id="NS_342" type="car" route="NS" depart="680" departSpeed="15"/>
    <vehicle id="t3_343" type="car" route="t3" depart="681" departSpeed="15"/>
    <vehicle id="NS_344" type="car" route="NS" depart="682" departSpeed="15"/>
    <vehicle id="EWBottom_345" type="car" route="EWBottom" depart="684" departSpeed="15"/>
    <vehicle id="SN_346" type="car" route="SN" depart="684" departSpeed="15"/>
    <vehicle id="t3_347" type="car" route="t3" depart="684" departSpeed="15"/>
    <vehicle id="t5_348" type="car" route="t5" depart="684" departSpeed="15"/>
    <vehicle id="WETop_349" type="car" route="WETop" depart="688" departSpeed="15"/>
    <vehicle id="SN_350" type="car" route="SN" depart="688" departSpeed="15"/>
    <vehicle id="t6_351" type="car" route="t6" depart="689" departSpeed="15"/>
    <vehicle id="t6_352" type="car" route="t6" depart="691" departSpeed="15"/>
    <vehicle id="t5_353" type="car" route="t5" depart="692" departSpeed="15"/>
    <vehicle id="t6_354" type="car" route="t6" depart="693" departSpeed="15"/>
    <vehicle id="EWBottom_355" type="car" route="EWBottom" depart="697" departSpeed="15"/>