<routes>
                                      <vType id="car" accel="1.0" decel="4.5" sigma="0.7" length="5" minGap="3" maxSpeed="15" guiShape="passenger"/>

                                      <route id="WETop" edges="5i 1i 2o" />
                                      <route id="EWTop" edges="2i 1o 5o" />
                                      <route id="NS" edges="4i 3o 8i" />
                                      <route id="SN" edges="8o 3i 4o" />
                                      <route id="WEBottom" edges="9o 7o 11o" />
                                      <route id="EWBottom" edges="11i 7i 9i" />

                                      <route id="t1" edges="6o 1i 3o 11o" />
                                      <route id="t2" edges="8o 7i 10i" />
                                      <route id="t3" edges="4i 1o 6i" />
                                      <route id="t4" edges="10o 7o 11o" />

                                      <route id="t5" edges="9o 7o 8i" />
                                      <route id="t6" edges="9o 10i" />
                                      <route id="t7" edges="6o 5o" />
                                      <route id="t8" edges="4i 3o 11o" />
                                      <route id="t9" edges="9o 7o 3i 1o 6i" />
                                      
    <vehicle id="WEBottom_0" type="car" route="WEBottom" depart="0" departSpeed="5"/>
    <vehicle id="t8_1" type="car" route="t8" depart="0" departSpeed="5"/>
    <vehicle id="t4_2" type="car" route="t4" depart="1" departSpeed="5"/>
    <vehicle id="t5_3" type="car" route="t5" depart="1" departSpeed="5"/>
    <vehicle id="t1_4" type="car" route="t1" depart="2" departSpeed="5"/>
    <vehicle id="EWTop_5" type="car" route="EWTop" depart="3" departSpeed="5"/>
    <vehicle id="NS_6" type="car" route="NS" depart="3" departSpeed="5"/>
    <vehicle id="t8_7" type="car" route="t8" depart="3" departSpeed="5"/>
    <vehicle id="NS_8" type="car" route="NS" depart="4" departSpeed="5"/>
    <vehicle id="t6_9" type="car" route="t6" depart="4" departSpeed="5"/>
    <vehicle id="t7_10" type="car" route="t7" depart="4" departSpeed="5"/>
    <vehicle id="EWTop_11" type="car" route="EWTop" depart="5" departSpeed="5"/>
    <vehicle id="t4_12" type="car" route="t4" depart="5" departSpeed="5"/>
    <vehicle id="t5_13" type="car" route="t5" depart="5" departSpeed="5"/>
    <vehicle id="NS_14" type="car" route="NS" depart="6" departSpeed="5"/>
    <vehicle id="t2_15" type="car" route="t2" depart="6" departSpeed="5"/>
    <vehicle id="t6_16" type="car" route="t6" depart="6" departSpeed="5"/>
    <vehicle id="t2_17" type="car" route="t2" depart="7" departSpeed="5"/>
    <vehicle id="t3_18" type="car" route="t3" depart="7" departSpeed="5"/>
    <vehicle id="t4_19" type="car" route="t4" depart="8" departSpeed="5"/>
    <vehicle id="t5_20" type="car" route="t5" depart="8" departSpeed="5"/>
    <vehicle id="WEBottom_21" type="car" route="WEBottom" depart="9" departSpeed="5"/>
    <vehicle id="t7_22" type="car" route="t7" depart="9" departSpeed="5"/>
    <vehicle id="t6_23" type="car" route="t6" depart="10" departSpeed="5"/>
    <vehicle id="SN_24" type="car" route="SN" depart="11" departSpeed="5"/>
    <vehicle id="t2_25" type="car" route="t2" depart="13" departSpeed="5"/>
    <vehicle id="t8_26" type="car" route="t8" depart="13" departSpeed="5"/>
    <vehicle id="t7_27" type="car" route="t7" depart="14" departSpeed="5"/>
    <vehicle id="EWTop_28" type="car" route="EWTop" depart="15" departSpeed="5"/>
    <vehicle id="t1_29" type="car" route="t1" depart="15" departSpeed="5"/>
    <vehicle id="t6_30" type="car" route="t6" depart="15" departSpeed="5"/>
    <vehicle id="WETop_31" type="car" route="WETop" depart="16" departSpeed="5"/>
    <vehicle id="t6_32" type="car" route="t6" depart="16" departSpeed="5"/>
    <vehicle id="t9_33" type="car" route="t9" depart="16" departSpeed="5"/>
    <vehicle id="NS_34" type="car" route="NS" depart="17" departSpeed="5"/>
    <vehicle id="t9_35" type="car" route="t9" depart="17" departSpeed="5"/>
    <vehicle id="WEBottom_36" type="car" route="WEBottom" depart="21" departSpeed="5"/>
    <vehicle id="SN_37" type="car" route="SN" depart="21" departSpeed="5"/>
    <vehicle id="t6_38" type="car" route="t6" depart="21" departSpeed="5"/>
    <vehicle id="t6_39" type="car" route="t6" depart="24" departSpeed="5"/>
    <vehicle id="WEBottom_40" type="car" route="WEBottom" depart="25" departSpeed="5"/>
    <vehicle id="EWBottom_41" type="car" route="EWBottom" depart="25" departSpeed="5"/>
    <vehicle id="t6_42" type="car" route="t6" depart="26" departSpeed="5"/>
    <vehicle id="t9_43" type="car" route="t9" depart="26" departSpeed="5"/>
    <vehicle id="t4_44" type="car" route="t4" depart="27" departSpeed="5"/>
    <vehicle id="t5_45" type="car" route="t5" depart="27" departSpeed="5"/>
    <vehicle id="EWBottom_46" type="car" route="EWBottom" depart="28" departSpeed="5"/>
    <vehicle id="EWTop_47" type="car" route="EWTop" depart="29" departSpeed="5"/>
    <vehicle id="t3_48" type="car" route="t3" depart="30" departSpeed="5"/>
    <vehicle id="EWTop_49" type="car" route="EWTop" depart="31" departSpeed="5"/>
    <vehicle id="t6_50" type="car" route="t6" depart="31" departSpeed="5"/>
    <vehicle id="t9_51" type="car" route="t9" depart="31" departSpeed="5"/>
    <vehicle id="WETop_52" type="car" route="WETop" depart="32" departSpeed="5"/>
    <vehicle id="EWBottom_53" type="car" route="EWBottom" depart="32" departSpeed="5"/>
    <vehicle id="t7_54" type="car" route="t7" depart="32" departSpeed="5"/>
    <vehicle id="t2_55" type="car" route="t2" depart="34" departSpeed="5"/>
    <vehicle id="t8_56" type="car" route="t8" depart="34" departSpeed="5"/>
    <vehicle id="WETop_57" type="car" route="WETop" depart="35" departSpeed="5"/>
    <vehicle id="t4_58" type="car" route="t4" depart="35" departSpeed="5"/>
    <vehicle id="t5_59" type="car" route="t5" depart="35" departSpeed="5"/>
    <vehicle id="t9_60" type="car" route="t9" depart="35" departSpeed="5"/>
    <vehicle id="t1_61" type="car" route="t1" depart="36" departSpeed="5"/>
    <vehicle id="EWBottom_62" type="car" route="EWBottom" depart="37" departSpeed="5"/>
    <vehicle id="NS_63" type="car" route="NS" depart="37" departSpeed="5"/>
    <vehicle id="t4_64" type="car" route="t4" depart="37" departSpeed="5"/>
    <vehicle id="t5_65" type="car" route="t5" depart="37" departSpeed="5"/>
    <vehicle id="t9_66" type="car" route="t9" depart="37" departSpeed="5"/>
    <vehicle id="t4_67" type="car" route="t4" depart="38" departSpeed="5"/>
    <vehicle id="t5_68" type="car" route="t5" depart="38" departSpeed="5"/>
    <vehicle id="EWTop_69" type="car" route="EWTop" depart="41" departSpeed="5"/>
    <vehicle id="t3_70" type="car" route="t3" depart="41" departSpeed="5"/>
    <vehicle id="t6_71" type="car" route="t6" depart="41" departSpeed="5"/>
    <vehicle id="t6_72" type="car" route="t6" depart="42" departSpeed="5"/>
    <vehicle id="t2_73" type="car" route="t2" depart="43" departSpeed="5"/>
    <vehicle id="t7_74" type="car" route="t7" depart="43" departSpeed="5"/>
    <vehicle id="EWBottom_75" type="car" route="EWBottom" depart="45" departSpeed="5"/>
    <vehicle id="t6_76" type="car" route="t6" depart="45" departSpeed="5"/>
    <vehicle id="t8_77" type="car" route="t8" depart="45" departSpeed="5"/>
    <vehicle id="t1_78" type="car" route="t1" depart="46" departSpeed="5"/>
    <vehicle id="EWBottom_79" type="car" route="EWBottom" depart="48" departSpeed="5"/>
    <vehicle id="t2_80" type="car" route="t2" depart="50" departSpeed="5"/>
    <vehicle id="WETop_81" type="car" route="WETop" depart="51" departSpeed="5"/>
    <vehicle id="NS_82" type="car" route="NS" depart="51" departSpeed="5"/>
    <vehicle id="SN_83" type="car" route="SN" depart="51" departSpeed="5"/>
    <vehicle id="EWTop_84" type="car" route="EWTop" depart="52" departSpeed="5"/>
    <vehicle id="t3_85" type="car" route="t3" depart="52" departSpeed="5"/>
    <vehicle id="t8_86" type="car" route="t8" depart="52" departSpeed="5"/>
    <vehicle id="t9_87" type="car" route="t9" depart="52" departSpeed="5"/>
    <vehicle id="SN_88" type="car" route="SN" depart="53" departSpeed="5"/>
    <vehicle id="t6_89" type="car" route="t6" depart="54" departSpeed="5"/>
    <vehicle id="t3_90" type="car" route="t3" depart="55" departSpeed="5"/>
    <vehicle id="t8_91" type="car" route="t8" depart="55" departSpeed="5"/>
    <vehicle id="WEBottom_92" type="car" route="WEBottom" depart="56" departSpeed="5"/>
    <vehicle id="t1_93" type="car" route="t1" depart="57" departSpeed="5"/>
    <vehicle id="t6_94" type="car" route="t6" depart="57" departSpeed="5"/>
    <vehicle id="NS_95" type="car" route="NS" depart="59" departSpeed="5"/>
    <vehicle id="EWTop_96" type="car" route="EWTop" depart="60" departSpeed="5"/>
    <vehicle id="t4_97" type="car" route="t4" depart="60" departSpeed="5"/>
    <vehicle id="t5_98" type="car" route="t5" depart="60" departSpeed="5"/>
    <vehicle id="WEBottom_99" type="car" route="WEBottom" depart="61" departSpeed="5"/>
    <vehicle id="t2_100" type="car" route="t2" depart="61" departSpeed="5"/>
    <vehicle id="t3_101" type="car" route="t3" depart="63" departSpeed="5"/>
    <vehicle id="t8_102" type="car" route="t8" depart="63" departSpeed="5"/>
    <vehicle id="t8_103" type="car" route="t8" depart="64" departSpeed="5"/>
    <vehicle id="t4_104" type="car" route="t4" depart="65" departSpeed="5"/>
    <vehicle id="t5_105" type="car" route="t5" depart="65" departSpeed="5"/>
    <vehicle id="t6_106" type="car" route="t6" depart="65" departSpeed="5"/>
    <vehicle id="EWBottom_107" type="car" route="EWBottom" depart="66" departSpeed="5"/>
    <vehicle id="t3_108" type="car" route="t3" depart="66" departSpeed="5"/>
    <vehicle id="WETop_109" type="car" route="WETop" depart="67" departSpeed="5"/>
    <vehicle id="NS_110" type="car" route="NS" depart="67" departSpeed="5"/>
    <vehicle id="SN_111" type="car" route="SN" depart="67" departSpeed="5"/>
    <vehicle id="t1_112" type="car" route="t1" depart="67" departSpeed="5"/>
    <vehicle id="WEBottom_113" type="car" route="WEBottom" depart="68" departSpeed="5"/>
    <vehicle id="EWBottom_114" type="car" route="EWBottom" depart="68" departSpeed="5"/>
    <vehicle id="t6_115" type="car" route="t6" depart="68" departSpeed="5"/>
    <vehicle id="WEBottom_116" type="car" route="WEBottom" depart="69" departSpeed="5"/>
    <vehicle id="t3_117" type="car" route="t3" depart="69" departSpeed="5"/>
    <vehicle id="t7_118" type="car" route="t7" depart="69" departSpeed="5"/>
    <vehicle id="t3_119" type="car" route="t3" depart="71" departSpeed="5"/>
    <vehicle id="t6_120" type="car" route="t6" depart="71" departSpeed="5"/>
    <vehicle id="t8_121" type="car" route="t8" depart="71" departSpeed="5"/>
    <vehicle id="t8_122" type="car" route="t8" depart="72" departSpeed="5"/>
    <vehicle id="t6_123" type="car" route="t6" depart="73" departSpeed="5"/>
    <vehicle id="t9_124" type="car" route="t9" depart="74" departSpeed="5"/>
    <vehicle id="WEBottom_125" type="car" route="WEBottom" depart="75" departSpeed="5"/>
    <vehicle id="t1_126" type="car" route="t1" depart="75" departSpeed="5"/>
    <vehicle id="NS_127" type="car" route="NS" depart="76" departSpeed="5"/>
    <vehicle id="t3_128" type="car" route="t3" depart="76" departSpeed="5"/>
    <vehicle id="t8_129" type="car" route="t8" depart="78" departSpeed="5"/>
    <vehicle id="EWBottom_130" type="car" route="EWBottom" depart="79" departSpeed="5"/>
    <vehicle id="t6_131" type="car" route="t6" depart="79" departSpeed="5"/>
    <vehicle id="NS_132" type="car" route="NS" depart="81" departSpeed="5"/>
    <vehicle id="t1_133" type="car" route="t1" depart="81" departSpeed="5"/>
    <vehicle id="t8_134" type="car" route="t8" depart="81" departSpeed="5"/>
    <vehicle id="t3_135" type="car" route="t3" depart="82" departSpeed="5"/>
    <vehicle id="t7_136" type="car" route="t7" depart="82" departSpeed="5"/>
    <vehicle id="t1_137" type="car" route="t1" depart="83" departSpeed="5"/>
    <vehicle id="t4_138" type="car" route="t4" depart="83" departSpeed="5"/>
    <vehicle id="t5_139" type="car" route="t5" depart="83" departSpeed="5"/>
    <vehicle id="EWBottom_140" type="car" route="EWBottom" depart="84" departSpeed="5"/>
    <vehicle id="t2_141" type="car" route="t2" depart="84" departSpeed="5"/>
    <vehicle id="t8_142" type="car" route="t8" depart="84" departSpeed="5"/>
    <vehicle id="EWBottom_143" type="car" route="EWBottom" depart="85" departSpeed="5"/>
    <vehicle id="t2_144" type="car" route="t2" depart="85" departSpeed="5"/>
    <vehicle id="SN_145" type="car" route="SN" depart="86" departSpeed="5"/>
    <vehicle id="EWTop_146" type="car" route="EWTop" depart="87" departSpeed="5"/>
    <vehicle id="WEBottom_147" type="car" route="WEBottom" depart="87" departSpeed="5"/>
    <vehicle id="t6_148" type="car" route="t6" depart="87" departSpeed="5"/>
    <vehicle id="EWBottom_149" type="car" route="EWBottom" depart="88" departSpeed="5"/>
    <vehicle id="t2_150" type="car" route="t2" depart="88" departSpeed="5"/>
    <vehicle id="WEBottom_151" type="car" route="WEBottom" depart="89" departSpeed="5"/>
    <vehicle id="t4_152" type="car" route="t4" depart="90" departSpeed="5"/>
    <vehicle id="t5_153" type="car" route="t5" depart="90" departSpeed="5"/>
    <vehicle id="WETop_154" type="car" route="WETop" depart="91" departSpeed="5"/>
    <vehicle id="t1_155" type="car" route="t1" depart="91" departSpeed="5"/>
    <vehicle id="t6_156" type="car" route="t6" depart="91" departSpeed="5"/>
    <vehicle id="t9_157" type="car" route="t9" depart="91" departSpeed="5"/>
    <vehicle id="t9_158" type="car" route="t9" depart="93" departSpeed="5"/>
    <vehicle id="t1_159" type="car" route="t1" depart="94" departSpeed="5"/>
    <vehicle id="t4_160" type="car" route="t4" depart="94" departSpeed="5"/>
    <vehicle id="t5_161" type="car" route="t5" depart="94" departSpeed="5"/>
    <vehicle id="NS_162" type="car" route="NS" depart="95" departSpeed="5"/>
    <vehicle id="SN_163" type="car" route="SN" depart="95" departSpeed="5"/>
    <vehicle id="t7_164" type="car" route="t7" depart="95" departSpeed="5"/>
    <vehicle id="EWTop_165" type="car" route="EWTop" depart="96" departSpeed="5"/>
    <vehicle id="t8_166" type="car" route="t8" depart="96" departSpeed="5"/>
    <vehicle id="t8_167" type="car" route="t8" depart="97" departSpeed="5"/>
    <vehicle id="t9_168" type="car" route="t9" depart="97" departSpeed="5"/>
    <vehicle id="SN_169" type="car" route="SN" depart="98" departSpeed="5"/>
    <vehicle id="WETop_170" type="car" route="WETop" depart="99" departSpeed="5"/>
    <vehicle id="EWTop_171" type="car" route="EWTop" depart="100" departSpeed="5"/>
    <vehicle id="t3_172" type="car" route="t3" depart="100" departSpeed="5"/>
    <vehicle id="t8_173" type="car" route="t8" depart="100" departSpeed="5"/>
    <vehicle id="EWBottom_174" type="car" route="EWBottom" depart="101" departSpeed="5"/>
    <vehicle id="WEBottom_175" type="car" route="WEBottom" depart="102" departSpeed="5"/>
    <vehicle id="SN_176" type="car" route="SN" depart="102" departSpeed="5"/>
    <vehicle id="t7_177" type="car" route="t7" depart="102" departSpeed="5"/>
    <vehicle id="t6_178" type="car" route="t6" depart="103" departSpeed="5"/>
    <vehicle id="WETop_179" type="car" route="WETop" depart="106" departSpeed="5"/>
    <vehicle id="WEBottom_180" type="car" route="WEBottom" depart="106" departSpeed="5"/>
    <vehicle id="t6_181" type="car" route="t6" depart="106" departSpeed="5"/>
    <vehicle id="t8_182" type="car" route="t8" depart="106" departSpeed="5"/>
    <vehicle id="t9_183" type="car" route="t9" depart="106" departSpeed="5"/>
    <vehicle id="t9_184" type="car" route="t9" depart="107" departSpeed="5"/>
    <vehicle id="t2_185" type="car" route="t2" depart="108" departSpeed="5"/>
    <vehicle id="t4_186" type="car" route="t4" depart="109" departSpeed="5"/>
    <vehicle id="t5_187" type="car" route="t5" depart="109" departSpeed="5"/>
    <vehicle id="t6_188" type="car" route="t6" depart="110" departSpeed="5"/>
    <vehicle id="t1_189" type="car" route="t1" depart="111" departSpeed="5"/>
    <vehicle id="NS_190" type="car" route="NS" depart="112" departSpeed="5"/>
    <vehicle id="SN_191" type="car" route="SN" depart="112" departSpeed="5"/>
    <vehicle id="t9_192" type="car" route="t9" depart="113" departSpeed="5"/>
    <vehicle id="t2_193" type="car" route="t2" depart="115" departSpeed="5"/>
    <vehicle id="WETop_194" type="car" route="WETop" depart="116" departSpeed="5"/>
    <vehicle id="t2_195" type="car" route="t2" depart="117" departSpeed="5"/>
    <vehicle id="t6_196" type="car" route="t6" depart="117" departSpeed="5"/>
    <vehicle id="t8_197" type="car" route="t8" depart="117" departSpeed="5"/>
    <vehicle id="t8_198" type="car" route="t8" depart="119" departSpeed="5"/>
    <vehicle id="t9_199" type="car" route="t9" depart="119" departSpeed="5"/>
    <vehicle id="t4_200" type="car" route="t4" depart="120" departSpeed="5"/>
    <vehicle id="t5_201" type="car" route="t5" depart="120" departSpeed="5"/>
    <vehicle id="t6_202" type="car" route="t6" depart="120" departSpeed="5"/>
    <vehicle id="WETop_203" type="car" route="WETop" depart="122" departSpeed="5"/>
    <vehicle id="NS_204" type="car" route="NS" depart="122" departSpeed="5"/>
    <vehicle id="t6_205" type="car" route="t6" depart="123" departSpeed="5"/>
    <vehicle id="WETop_206" type="car" route="WETop" depart="124" departSpeed="5"/>
    <vehicle id="t4_207" type="car" route="t4" depart="124" departSpeed="5"/>
    <vehicle id="t5_208" type="car" route="t5" depart="124" departSpeed="5"/>
    <vehicle id="t9_209" type="car" route="t9" depart="125" departSpeed="5"/>
    <vehicle id="t4_210" type="car" route="t4" depart="126" departSpeed="5"/>
    <vehicle id="t5_211" type="car" route="t5" depart="126" departSpeed="5"/>
    <vehicle id="t6_212" type="car" route="t6" depart="126" departSpeed="5"/>
    <vehicle id="WEBottom_213" type="car" route="WEBottom" depart="127" departSpeed="5"/>
    <vehicle id="EWBottom_214" type="car" route="EWBottom" depart="127" departSpeed="5"/>
    <vehicle id="t2_215" type="car" route="t2" depart="127" departSpeed="5"/>
    <vehicle id="t4_216" type="car" route="t4" depart="127" departSpeed="5"/>
    <vehicle id="t5_217" type="car" route="t5" depart="127" departSpeed="5"/>
    <vehicle id="WEBottom_218" type="car" route="WEBottom" depart="128" departSpeed="5"/>
    <vehicle id="WETop_219" type="car" route="WETop" depart="129" departSpeed="5"/>
    <vehicle id="WEBottom_220" type="car" route="WEBottom" depart="129" departSpeed="5"/>
    <vehicle id="EWBottom_221" type="car" route="EWBottom" depart="129" departSpeed="5"/>
    <vehicle id="t6_222" type="car" route="t6" depart="130" departSpeed="5"/>
    <vehicle id="t8_223" type="car" route="t8" depart="130" departSpeed="5"/>
    <vehicle id="t9_224" type="car" route="t9" depart="130" departSpeed="5"/>
    <vehicle id="t2_225" type="car" route="t2" depart="131" departSpeed="5"/>
    <vehicle id="t6_226" type="car" route="t6" depart="132" departSpeed="5"/>
    <vehicle id="t3_227" type="car" route="t3" depart="133" departSpeed="5"/>
    <vehicle id="t6_228" type="car" route="t6" depart="134" departSpeed="5"/>
    <vehicle id="WEBottom_229" type="car" route="WEBottom" depart="135" departSpeed="5"/>
    <vehicle id="t2_230" type="car" route="t2" depart="135" departSpeed="5"/>
    <vehicle id="t4_231" type="car" route="t4" depart="135" departSpeed="5"/>
    <vehicle id="t5_232" type="car" route="t5" depart="135" departSpeed="5"/>
    <vehicle id="t8_233" type="car" route="t8" depart="136" departSpeed="5"/>
    <vehicle id="WEBottom_234" type="car" route="WEBottom" depart="138" departSpeed="5"/>
    <vehicle id="WEBottom_235" type="car" route="WEBottom" depart="139" departSpeed="5"/>
    <vehicle id="t7_236" type="car" route="t7" depart="139" departSpeed="5"/>
    <vehicle id="WETop_237" type="car" route="WETop" depart="140" departSpeed="5"/>
    <vehicle id="EWBottom_238" type="car" route="EWBottom" depart="140" departSpeed="5"/>
    <vehicle id="t2_239" type="car" route="t2" depart="140" departSpeed="5"/>
    <vehicle id="t6_240" type="car" route="t6" depart="140" departSpeed="5"/>
    <vehicle id="t8_241" type="car" route="t8" depart="140" departSpeed="5"/>
    <vehicle id="EWBottom_242" type="car" route="EWBottom" depart="141" departSpeed="5"/>
    <vehicle id="t3_243" type="car" route="t3" depart="141" departSpeed="5"/>
    <vehicle id="t4_244" type="car" route="t4" depart="145" departSpeed="5"/>
    <vehicle id="t5_245" type="car" route="t5" depart="145" departSpeed="5"/>
    <vehicle id="t6_246" type="car" route="t6" depart="145" departSpeed="5"/>
    <vehicle id="WETop_247" type="car" route="WETop" depart="146" departSpeed="5"/>
    <vehicle id="NS_248" type="car" route="NS" depart="146" departSpeed="5"/>
    <vehicle id="SN_249" type="car" route="SN" depart="147" departSpeed="5"/>
    <vehicle id="WEBottom_250" type="car" route="WEBottom" depart="148" departSpeed="5"/>
    <vehicle id="t2_251" type="car" route="t2" depart="148" departSpeed="5"/>
    <vehicle id="WEBottom_252" type="car" route="WEBottom" depart="149" departSpeed="5"/>
    <vehicle id="t1_253" type="car" route="t1" depart="149" departSpeed="5"/>
    <vehicle id="t3_254" type="car" route="t3" depart="149" departSpeed="5"/>
    <vehicle id="t6_255" type="car" route="t6" depart="149" departSpeed="5"/>
    <vehicle id="t8_256" type="car" route="t8" depart="149" departSpeed="5"/>
    <vehicle id="t6_257" type="car" route="t6" depart="150" departSpeed="5"/>
    <vehicle id="t4_258" type="car" route="t4" depart="151" departSpeed="5"/>
    <vehicle id="t5_259" type="car" route="t5" depart="151" departSpeed="5"/>
    <vehicle id="WETop_260" type="car" route="WETop" depart="152" departSpeed="5"/>
    <vehicle id="t6_261" type="car" route="t6" depart="153" departSpeed="5"/>
    <vehicle id="t6_262" type="car" route="t6" depart="153" departSpeed="5"/>
    <vehicle id="t6_263" type="car" route="t6" depart="154" departSpeed="5"/>
    <vehicle id="t6_264" type="car" route="t6" depart="154" departSpeed="5"/>
    <vehicle id="EWTop_265" type="car" route="EWTop" depart="156" departSpeed="5"/>
    <vehicle id="SN_266" type="car" route="SN" depart="156" departSpeed="5"/>
    <vehicle id="t8_267" type="car" route="t8" depart="156" departSpeed="5"/>
    <vehicle id="EWTop_268" type="car" route="EWTop" depart="157" departSpeed="5"/>
    <vehicle id="t4_269" type="car" route="t4" depart="157" departSpeed="5"/>
    <vehicle id="t5_270" type="car" route="t5" depart="157" departSpeed="5"/>
    <vehicle id="t2_271" type="car" route="t2" depart="159" departSpeed="5"/>
    <vehicle id="EWTop_272" type="car" route="EWTop" depart="160" departSpeed="5"/>
    <vehicle id="WETop_273" type="car" route="WETop" depart="161" departSpeed="5"/>
    <vehicle id="t4_274" type="car" route="t4" depart="161" departSpeed="5"/>
    <vehicle id="t5_275" type="car" route="t5" depart="161" departSpeed="5"/>
    <vehicle id="t6_276" type="car" route="t6" depart="161" departSpeed="5"/>
    <vehicle id="EWBottom_277" type="car" route="EWBottom" depart="162" departSpeed="5"/>
    <vehicle id="t2_278" type="car" route="t2" depart="162" departSpeed="5"/>
    <vehicle id="t3_279" type="car" route="t3" depart="162" departSpeed="5"/>
    <vehicle id="EWTop_280" type="car" route="EWTop" depart="163" departSpeed="5"/>
    <vehicle id="t9_281" type="car" route="t9" depart="163" departSpeed="5"/>
    <vehicle id="WEBottom_282" type="car" route="WEBottom" depart="164" departSpeed="5"/>
    <vehicle id="t4_283" type="car" route="t4" depart="164" departSpeed="5"/>
    <vehicle id="t5_284" type="car" route="t5" depart="164" departSpeed="5"/>
    <vehicle id="t6_285" type="car" route="t6" depart="164" departSpeed="5"/>
    <vehicle id="WETop_286" type="car" route="WETop" depart="165" departSpeed="5"/>
    <vehicle id="NS_287" type="car" route="NS" depart="165" departSpeed="5"/>
    <vehicle id="t8_288" type="car" route="t8" depart="167" departSpeed="5"/>
    <vehicle id="t8_289" type="car" route="t8" depart="168" departSpeed="5"/>
    <vehicle id="t2_290" type="car" route="t2" depart="170" departSpeed="5"/>
    <vehicle id="t3_291" type="car" route="t3" depart="170" departSpeed="5"/>
    <vehicle id="t7_292" type="car" route="t7" depart="170" departSpeed="5"/>
    <vehicle id="t3_293" type="car" route="t3" depart="171" departSpeed="5"/>
    <vehicle id="SN_294" type="car" route="SN" depart="172" departSpeed="5"/>
    <vehicle id="WETop_295" type="car" route="WETop" depart="173" departSpeed="5"/>
    <vehicle id="EWTop_296" type="car" route="EWTop" depart="173" departSpeed="5"/>
    <vehicle id="t4_297" type="car" route="t4" depart="173" departSpeed="5"/>
    <vehicle id="t5_298" type="car" route="t5" depart="173" departSpeed="5"/>
    <vehicle id="WETop_299" type="car" route="WETop" depart="175" departSpeed="5"/>
    <vehicle id="WETop_300" type="car" route="WETop" depart="176" departSpeed="5"/>
    <vehicle id="t8_301" type="car" route="t8" depart="176" departSpeed="5"/>
    <vehicle id="t8_302" type="car" route="t8" depart="177" departSpeed="5"/>
    <vehicle id="NS_303" type="car" route="NS" depart="178" departSpeed="5"/>
    <vehicle id="t6_304" type="car" route="t6" depart="178" departSpeed="5"/>
    <vehicle id="t6_305" type="car" route="t6" depart="178" departSpeed="5"/>
    <vehicle id="NS_306" type="car" route="NS" depart="179" departSpeed="5"/>
    <vehicle id="SN_307" type="car" route="SN" depart="179" departSpeed="5"/>
    <vehicle id="t2_308" type="car" route="t2" depart="179" departSpeed="5"/>
    <vehicle id="t1_309" type="car" route="t1" depart="180" departSpeed="5"/>
    <vehicle id="EWBottom_310" type="car" route="EWBottom" depart="181" departSpeed="5"/>
    <vehicle id="t4_311" type="car" route="t4" depart="181" departSpeed="5"/>
    <vehicle id="t5_312" type="car" route="t5" depart="181" departSpeed="5"/>
    <vehicle id="SN_313" type="car" route="SN" depart="182" departSpeed="5"/>
    <vehicle id="t8_314" type="car" route="t8" depart="182" departSpeed="5"/>
    <vehicle id="t1_315" type="car" route="t1" depart="186" departSpeed="5"/>
    <vehicle id="WETop_316" type="car" route="WETop" depart="187" departSpeed="5"/>
    <vehicle id="t9_317" type="car" route="t9" depart="187" departSpeed="5"/>
    <vehicle id="t1_318" type="car" route="t1" depart="189" departSpeed="5"/>
    <vehicle id="t8_319" type="car" route="t8" depart="189" departSpeed="5"/>
    <vehicle id="t1_320" type="car" route="t1" depart="192" departSpeed="5"/>
    <vehicle id="t1_321" type="car" route="t1" depart="193" departSpeed="5"/>
    <vehicle id="SN_322" type="car" route="SN" depart="195" departSpeed="5"/>
    <vehicle id="t1_323" type="car" route="t1" depart="195" departSpeed="5"/>
    <vehicle id="WETop_324" type="car" route="WETop" depart="196" departSpeed="5"/>
    <vehicle id="t4_325" type="car" route="t4" depart="196" departSpeed="5"/>
    <vehicle id="t5_326" type="car" route="t5" depart="196" departSpeed="5"/>
    <vehicle id="t6_327" type="car" route="t6" depart="196" departSpeed="5"/>
    <vehicle id="t2_328" type="car" route="t2" depart="197" departSpeed="5"/>
    <vehicle id="t3_329" type="car" route="t3" depart="197" departSpeed="5"/>
    <vehicle id="EWBottom_330" type="car" route="EWBottom" depart="198" departSpeed="5"/>
    <vehicle id="NS_331" type="car" route="NS" depart="198" departSpeed="5"/>
    <vehicle id="t9_332" type="car" route="t9" depart="198" departSpeed="5"/>
    <vehicle id="t4_333" type="car" route="t4" depart="199" departSpeed="5"/>
    <vehicle id="t5_334" type="car" route="t5" depart="199" departSpeed="5"/>
    <vehicle id="NS_335" type="car" route="NS" depart="200" departSpeed="5"/>
    <vehicle id="t2_336" type="car" route="t2" depart="200" departSpeed="5"/>
    <vehicle id="t8_337" type="car" route="t8" depart="200" departSpeed="5"/>
    <vehicle id="t8_338" type="car" route="t8" depart="201" departSpeed="5"/>
    <vehicle id="WETop_339" type="car" route="WETop" depart="203" departSpeed="5"/>
    <vehicle id="t3_340" type="car" route="t3" depart="203" departSpeed="5"/>
    <vehicle id="t8_341" type="car" route="t8" depart="203" departSpeed="5"/>
    <vehicle id="t1_342" type="car" route="t1" depart="204" departSpeed="5"/>
    <vehicle id="t9_343" type="car" route="t9" depart="204" departSpeed="5"/>
    <vehicle id="WEBottom_344" type="car" route="WEBottom" depart="205" departSpeed="5"/>
    <vehicle id="t2_345" type="car" route="t2" depart="205" departSpeed="5"/>
    <vehicle id="WEBottom_346" type="car" route="WEBottom" depart="206" departSpeed="5"/>
    <vehicle id="t6_347" type="car" route="t6" depart="206" departSpeed="5"/>
    <vehicle id="t8_348" type="car" route="t8" depart="206" departSpeed="5"/>
    <vehicle id="t8_349" type="car" route="t8" depart="207" departSpeed="5"/>
    <vehicle id="EWTop_350" type="car" route="EWTop" depart="209" departSpeed="5"/>
    <vehicle id="WEBottom_351" type="car" route="WEBottom" depart="209" departSpeed="5"/>
    <vehicle id="EWBottom_352" type="car" route="EWBottom" depart="210" departSpeed="5"/>
    <vehicle id="NS_353" type="car" route="NS" depart="211" departSpeed="5"/>
    <vehicle id="t3_354" type="car" route="t3" depart="211" departSpeed="5"/>
    <vehicle id="t6_355" type="car" route="t6" depart="212" departSpeed="5"/>
    <vehicle id="t6_356" type="car" route="t6" depart="213" departSpeed="5"/>
    <vehicle id="t9_357" type="car" route="t9" depart="213" departSpeed="5"/>
    <vehicle id="SN_358" type="car" route="SN" depart="214" departSpeed="5"/>
    <vehicle id="t2_359" type="car" route="t2" depart="214" departSpeed="5"/>
    <vehicle id="t2_360" type="car" route="t2" depart="215" departSpeed="5"/>