<routes>
            <vType id="car" accel="1.0" decel="4.5" sigma="0.7" length="5" minGap="3" maxSpeed="15" guiShape="passenger"/>

            <route id="right" edges="1i 2o" />
            <route id="left" edges="2i 1o" />
            <route id="down" edges="4i 3o" />
            <route id="up" edges="3i 4o" />
    <vehicle id="down_0" type="car" route="down" depart="0" departSpeed="5"/>
    <vehicle id="up_1" type="car" route="up" depart="1" departSpeed="5"/>
    <vehicle id="up_2" type="car" route="up" depart="4" departSpeed="5"/>
    <vehicle id="right_3" type="car" route="right" depart="6" departSpeed="5"/>
    <vehicle id="left_4" type="car" route="left" depart="7" departSpeed="5"/>
    <vehicle id="left_5" type="car" route="left" depart="9" departSpeed="5"/>
    <vehicle id="right_6" type="car" route="right" depart="11" departSpeed="5"/>
    <vehicle id="right_7" type="car" route="right" depart="13" departSpeed="5"/>
    <vehicle id="right_8" type="car" route="right" depart="15" departSpeed="5"/>
    <vehicle id="right_9" type="car" route="right" depart="17" departSpeed="5"/>
    <vehicle id="left_10" type="car" route="left" depart="19" departSpeed="5"/>
    <vehicle id="down_11" type="car" route="down" depart="22" departSpeed="5"/>
    <vehicle id="left_12" type="car" route="left" depart="25" departSpeed="5"/>
    <vehicle id="right_13" type="car" route="right" depart="26" departSpeed="5"/>
    <vehicle id="left_14" type="car" route="left" depart="28" departSpeed="5"/>
    <vehicle id="up_15" type="car" route="up" depart="34" departSpeed="5"/>
    <vehicle id="right_16" type="car" route="right" depart="35" departSpeed="5"/>
    <vehicle id="down_17" type="car" route="down" depart="35" departSpeed="5"/>
    <vehicle id="right_18" type="car" route="right" depart="38" departSpeed="5"/>
    <vehicle id="down_19" type="car" route="down" depart="38" departSpeed="5"/>
    <vehicle id="down_20" type="car" route="down" depart="39" departSpeed="5"/>
    <vehicle id="up_21" type="car" route="up" depart="40" departSpeed="5"/>
    <vehicle id="up_22" type="car" route="up" depart="44" departSpeed="5"/>
    <vehicle id="right_23" type="car" route="right" depart="55" departSpeed="5"/>
    <vehicle id="left_24" type="car" route="left" depart="55" departSpeed="5"/>
    <vehicle id="down_25" type="car" route="down" depart="66" departSpeed="5"/>
    <vehicle id="down_26" type="car" route="down" depart="69" departSpeed="5"/>
    <vehicle id="left_27" type="car" route="left" depart="74" departSpeed="5"/>
    <vehicle id="up_28" type="car" route="up" depart="80" departSpeed="5"/>
    <vehicle id="up_29" type="car" route="up" depart="81" departSpeed="5"/>
    <vehicle id="down_30" type="car" route="down" depart="82" departSpeed="5"/>
    <vehicle id="left_31" type="car" route="left" depart="83" departSpeed="5"/>
    <vehicle id="down_32" type="car" route="down" depart="86" departSpeed="5"/>
    <vehicle id="down_33" type="car" route="down" depart="87" departSpeed="5"/>
    <vehicle id="left_34" type="car" route="left" depart="88" departSpeed="5"/>
    <vehicle id="down_35" type="car" route="down" depart="91" departSpeed="5"/>
    <vehicle id="right_36" type="car" route="right" depart="92" departSpeed="5"/>
    <vehicle id="left_37" type="car" route="left" depart="92" departSpeed="5"/>
    <vehicle id="down_38" type="car" route="down" depart="94" departSpeed="5"/>
    <vehicle id="down_39" type="car" route="down" depart="97" departSpeed="5"/>
    <vehicle id="up_40" type="car" route="up" depart="98" departSpeed="5"/>
    <vehicle id="up_41" type="car" route="up" depart="99" departSpeed="5"/>
    <vehicle id="up_42" type="car" route="up" depart="100" departSpeed="5"/>
    <vehicle id="down_43" type="car" route="down" depart="104" departSpeed="5"/>
    <vehicle id="up_44" type="car" route="up" depart="105" departSpeed="5"/>
    <vehicle id="right_45" type="car" route="right" depart="112" departSpeed="5"/>
    <vehicle id="left_46" type="car" route="left" depart="114" departSpeed="5"/>
    <vehicle id="left_47" type="car" route="left" depart="121" departSpeed="5"/>
    <vehicle id="down_48" type="car" route="down" depart="121" departSpeed="5"/>
    <vehicle id="down_49" type="car" route="down" depart="122" departSpeed="5"/>
    <vehicle id="right_50" type="car" route="right" depart="124" departSpeed="5"/>
    <vehicle id="left_51" type="car" route="left" depart="124" departSpeed="5"/>
    <vehicle id="down_52" type="car" route="down" depart="131" departSpeed="5"/>
    <vehicle id="up_53" type="car" route="up" depart="132" departSpeed="5"/>
    <vehicle id="left_54" type="car" route="left" depart="138" departSpeed="5"/>
    <vehicle id="left_55" type="car" route="left" depart="140" departSpeed="5"/>
    <vehicle id="down_56" type="car" route="down" depart="140" departSpeed="5"/>
    <vehicle id="up_57" type="car" route="up" depart="140" departSpeed="5"/>
    <vehicle id="up_58" type="car" route="up" depart="141" departSpeed="5"/>
    <vehicle id="left_59" type="car" route="left" depart="145" departSpeed="5"/>
    <vehicle id="up_60" type="car" route="up" depart="145" departSpeed="5"/>
    <vehicle id="left_61" type="car" route="left" depart="147" departSpeed="5"/>
    <vehicle id="right_62" type="car" route="right" depart="148" departSpeed="5"/>
    <vehicle id="right_63" type="car" route="right" depart="155" departSpeed="5"/>
    <vehicle id="up_64" type="car" route="up" depart="155" departSpeed="5"/>
    <vehicle id="down_65" type="car" route="down" depart="164" departSpeed="5"/>
    <vehicle id="left_66" type="car" route="left" depart="169" departSpeed="5"/>
    <vehicle id="up_67" type="car" route="up" depart="175" departSpeed="5"/>
    <vehicle id="right_68" type="car" route="right" depart="177" departSpeed="5"/>
    <vehicle id="up_69" type="car" route="up" depart="179" departSpeed="5"/>
    <vehicle id="left_70" type="car" route="left" depart="182" departSpeed="5"/>
    <vehicle id="up_71" type="car" route="up" depart="188" departSpeed="5"/>
    <vehicle id="up_72" type="car" route="up" depart="191" departSpeed="5"/>
    <vehicle id="up_73" type="car" route="up" depart="193" departSpeed="5"/>
    <vehicle id="down_74" type="car" route="down" depart="194" departSpeed="5"/>
    <vehicle id="down_75" type="car" route="down" depart="198" departSpeed="5"/>
    <vehicle id="left_76" type="car" route="left" depart="199" departSpeed="5"/>
    <vehicle id="right_77" type="car" route="right" depart="201" departSpeed="5"/>
    <vehicle id="down_78" type="car" route="down" depart="202" departSpeed="5"/>
    <vehicle id="left_79" type="car" route="left" depart="205" departSpeed="5"/>
    <vehicle id="left_80" type="car" route="left" depart="207" departSpeed="5"/>
    <vehicle id="down_81" type="car" route="down" depart="208" departSpeed="5"/>
    <vehicle id="left_82" type="car" route="left" depart="209" departSpeed="5"/>
    <vehicle id="left_83" type="car" route="left" depart="215" departSpeed="5"/>
    <vehicle id="right_84" type="car" route="right" depart="220" departSpeed="5"/>
    <vehicle id="up_85" type="car" route="up" depart="220" departSpeed="5"/>
    <vehicle id="up_86" type="car" route="up" depart="222" departSpeed="5"/>
    <vehicle id="right_87" type="car" route="right" depart="229" departSpeed="5"/>
    <vehicle id="down_88" type="car" route="down" depart="230" departSpeed="5"/>
    <vehicle id="down_89" type="car" route="down" depart="231" departSpeed="5"/>
    <vehicle id="left_90" type="car" route="left" depart="244" departSpeed="5"/>
    <vehicle id="right_91" type="car" route="right" depart="245" departSpeed="5"/>
    <vehicle id="left_92" type="car" route="left" depart="248" departSpeed="5"/>
    <vehicle id="down_93" type="car" route="down" depart="250" departSpeed="5"/>
    <vehicle id="right_94" type="car" route="right" depart="251" departSpeed="5"/>
    <vehicle id="up_95" type="car" route="up" depart="251" departSpeed="5"/>
    <vehicle id="left_96" type="car" route="left" depart="252" departSpeed="5"/>
    <vehicle id="left_97" type="car" route="left" depart="255" departSpeed="5"/>
    <vehicle id="right_98" type="car" route="right" depart="256" departSpeed="5"/>
    <vehicle id="left_99" type="car" route="left" depart="257" departSpeed="5"/>
    <vehicle id="up_100" type="car" route="up" depart="261" departSpeed="5"/>
    <vehicle id="left_101" type="car" route="left" depart="262" departSpeed="5"/>
    <vehicle id="right_102" type="car" route="right" depart="263" departSpeed="5"/>
    <vehicle id="right_103" type="car" route="right" depart="264" departSpeed="5"/>
    <vehicle id="right_104" type="car" route="right" depart="266" departSpeed="5"/>
    <vehicle id="down_105" type="car" route="down" depart="268" departSpeed="5"/>
    <vehicle id="up_106" type="car" route="up" depart="272" departSpeed="5"/>
    <vehicle id="up_107" type="car" route="up" depart="277" departSpeed="5"/>
    <vehicle id="right_108" type="car" route="right" depart="278" departSpeed="5"/>
    <vehicle id="right_109" type="car" route="right" depart="280" departSpeed="5"/>
    <vehicle id="up_110" type="car" route="up" depart="281" departSpeed="5"/>
    <vehicle id="down_111" type="car" route="down" depart="285" departSpeed="5"/>
    <vehicle id="right_112" type="car" route="right" depart="286" departSpeed="5"/>
    <vehicle id="left_113" type="car" route="left" depart="287" departSpeed="5"/>
    <vehicle id="right_114" type="car" route="right" depart="288" departSpeed="5"/>
    <vehicle id="down_115" type="car" route="down" depart="289" departSpeed="5"/>
    <vehicle id="right_116" type="car" route="right" depart="292" departSpeed="5"/>
    <vehicle id="down_117" type="car" route="down" depart="292" departSpeed="5"/>
    <vehicle id="down_118" type="car" route="down" depart="297" departSpeed="5"/>
    <vehicle id="up_119" type="car" route="up" depart="300" departSpeed="5"/>
    <vehicle id="down_120" type="car" route="down" depart="304" departSpeed="5"/>
    <vehicle id="right_121" type="car" route="right" depart="306" departSpeed="5"/>
    <vehicle id="left_122" type="car" route="left" depart="308" departSpeed="5"/>
    <vehicle id="down_123" type="car" route="down" depart="308" departSpeed="5"/>
    <vehicle id="up_124" type="car" route="up" depart="310" departSpeed="5"/>
    <vehicle id="right_125" type="car" route="right" depart="311" departSpeed="5"/>
    <vehicle id="left_126" type="car" route="left" depart="311" departSpeed="5"/>
    <vehicle id="up_127" type="car" route="up" depart="314" departSpeed="5"/>
    <vehicle id="right_128" type="car" route="right" depart="315" departSpeed="5"/>
    <vehicle id="down_129" type="car" route="down" depart="315" departSpeed="5"/>
    <vehicle id="down_130" type="car" route="down" depart="321" departSpeed="5"/>
    <vehicle id="left_131" type="car" route="left" depart="322" departSpeed="5"/>
    <vehicle id="up_132" type="car" route="up" depart="322" departSpeed="5"/>
    <vehicle id="down_133" type="car" route="down" depart="328" departSpeed="5"/>
    <vehicle id="left_134" type="car" route="left" depart="333" departSpeed="5"/>
    <vehicle id="up_135" type="car" route="up" depart="333" departSpeed="5"/>
    <vehicle id="down_136" type="car" route="down" depart="335" departSpeed="5"/>
    <vehicle id="down_137" type="car" route="down" depart="336" departSpeed="5"/>
    <vehicle id="up_138" type="car" route="up" depart="336" departSpeed="5"/>
    <vehicle id="left_139" type="car" route="left" depart="337" departSpeed="5"/>
    <vehicle id="down_140" type="car" route="down" depart="337" departSpeed="5"/>
    <vehicle id="right_141" type="car" route="right" depart="338" departSpeed="5"/>
    <vehicle id="left_142" type="car" route="left" depart="340" departSpeed="5"/>
    <vehicle id="right_143" type="car" route="right" depart="344" departSpeed="5"/>
    <vehicle id="down_144" type="car" route="down" depart="344" departSpeed="5"/>
    <vehicle id="up_145" type="car" route="up" depart="346" departSpeed="5"/>
    <vehicle id="down_146" type="car" route="down" depart="355" departSpeed="5"/>
    <vehicle id="left_147" type="car" route="left" depart="358" departSpeed="5"/>
    <vehicle id="left_148" type="car" route="left" depart="362" departSpeed="5"/>
    <vehicle id="down_149" type="car" route="down" depart="364" departSpeed="5"/>
    <vehicle id="right_150" type="car" route="right" depart="365" departSpeed="5"/>
    <vehicle id="left_151" type="car" route="left" depart="370" departSpeed="5"/>
    <vehicle id="left_152" type="car" route="left" depart="372" departSpeed="5"/>
    <vehicle id="down_153" type="car" route="down" depart="374" departSpeed="5"/>
    <vehicle id="left_154" type="car" route="left" depart="383" departSpeed="5"/>
    <vehicle id="right_155" type="car" route="right" depart="385" departSpeed="5"/>
    <vehicle id="left_156" type="car" route="left" depart="386" departSpeed="5"/>
    <vehicle id="up_157" type="car" route="up" depart="389" departSpeed="5"/>
    <vehicle id="up_158" type="car" route="up" depart="394" departSpeed="5"/>
    <vehicle id="left_159" type="car" route="left" depart="399" departSpeed="5"/>
    <vehicle id="up_160" type="car" route="up" depart="401" departSpeed="5"/>
    <vehicle id="left_161" type="car" route="left" depart="403" departSpeed="5"/>
    <vehicle id="down_162" type="car" route="down" depart="403" departSpeed="5"/>
    <vehicle id="up_163" type="car" route="up" depart="403" departSpeed="5"/>
    <vehicle id="left_164" type="car" route="left" depart="406" departSpeed="5"/>
    <vehicle id="up_165" type="car" route="up" depart="408" departSpeed="5"/>
    <vehicle id="right_166" type="car" route="right" depart="412" departSpeed="5"/>
    <vehicle id="down_167" type="car" route="down" depart="417" departSpeed="5"/>
    <vehicle id="left_168" type="car" route="left" depart="418" departSpeed="5"/>
    <vehicle id="right_169" type="car" route="right" depart="422" departSpeed="5"/>
    <vehicle id="up_170" type="car" route="up" depart="426" departSpeed="5"/>
    <vehicle id="right_171" type="car" route="right" depart="428" departSpeed="5"/>
    <vehicle id="down_172" type="car" route="down" depart="429" departSpeed="5"/>
    <vehicle id="up_173" type="car" route="up" depart="429" departSpeed="5"/>
    <vehicle id="right_174" type="car" route="right" depart="432" departSpeed="5"/>
    <vehicle id="left_175" type="car" route="left" depart="437" departSpeed="5"/>
    <vehicle id="left_176" type="car" route="left" depart="442" departSpeed="5"/>
    <vehicle id="up_177" type="car" route="up" depart="442" departSpeed="5"/>
    <vehicle id="down_178" type="car" route="down" depart="446" departSpeed="5"/>
    <vehicle id="right_179" type="car" route="right" depart="451" departSpeed="5"/>
    <vehicle id="down_180" type="car" route="down" depart="453" departSpeed="5"/>
    <vehicle id="left_181" type="car" route="left" depart="454" departSpeed="5"/>
    <vehicle id="left_182" type="car" route="left" depart="455" departSpeed="5"/>
    <vehicle id="right_183" type="car" route="right" depart="461" departSpeed="5"/>
    <vehicle id="right_184" type="car" route="right" depart="462" departSpeed="5"/>
    <vehicle id="up_185" type="car" route="up" depart="463" departSpeed="5"/>
    <vehicle id="up_186" type="car" route="up" depart="466" departSpeed="5"/>
    <vehicle id="right_187" type="car" route="right" depart="467" departSpeed="5"/>
    <vehicle id="up_188" type="car" route="up" depart="472" departSpeed="5"/>
    <vehicle id="down_189" type="car" route="down" depart="474" departSpeed="5"/>
    <vehicle id="left_190" type="car" route="left" depart="475" departSpeed="5"/>
    <vehicle id="down_191" type="car" route="down" depart="478" departSpeed="5"/>
    <vehicle id="up_192" type="car" route="up" depart="478" departSpeed="5"/>
    <vehicle id="right_193" type="car" route="right" depart="481" departSpeed="5"/>
    <vehicle id="up_194" type="car" route="up" depart="481" departSpeed="5"/>
    <vehicle id="left_195" type="car" route="left" depart="486" departSpeed="5"/>
    <vehicle id="up_196" type="car" route="up" depart="490" departSpeed="5"/>
    <vehicle id="right_197" type="car" route="right" depart="491" departSpeed="5"/>
    <vehicle id="down_198" type="car" route="down" depart="492" departSpeed="5"/>
    <vehicle id="up_199" type="car" route="up" depart="495" departSpeed="5"/>
    <vehicle id="left_200" type="car" route="left" depart="496" departSpeed="5"/>
    <vehicle id="right_201" type="car" route="right" depart="497" departSpeed="5"/>
    <vehicle id="up_202" type="car" route="up" depart="503" departSpeed="5"/>
    <vehicle id="left_203" type="car" route="left" depart="505" departSpeed="5"/>
    <vehicle id="up_204" type="car" route="up" depart="505" departSpeed="5"/>
    <vehicle id="down_205" type="car" route="down" depart="506" departSpeed="5"/>
    <vehicle id="left_206" type="car" route="left" depart="509" departSpeed="5"/>
    <vehicle id="down_207" type="car" route="down" depart="509" departSpeed="5"/>
    <vehicle id="down_208" type="car" route="down" depart="511" departSpeed="5"/>
    <vehicle id="right_209" type="car" route="right" depart="512" departSpeed="5"/>
    <vehicle id="right_210" type="car" route="right" depart="513" departSpeed="5"/>
    <vehicle id="left_211" type="car" route="left" depart="518" departSpeed="5"/>
    <vehicle id="left_212" type="car" route="left" depart="520" departSpeed="5"/>
    <vehicle id="right_213" type="car" route="right" depart="524" departSpeed="5"/>
    <vehicle id="right_214" type="car" route="right" depart="528" departSpeed="5"/>
    <vehicle id="left_215" type="car" route="left" depart="531" departSpeed="5"/>
    <vehicle id="down_216" type="car" route="down" depart="535" departSpeed="5"/>
    <vehicle id="up_217" type="car" route="up" depart="537" departSpeed="5"/>
    <vehicle id="left_218" type="car" route="left" depart="539" departSpeed="5"/>
    <vehicle id="right_219" type="car" route="right" depart="542" departSpeed="5"/>
    <vehicle id="up_220" type="car" route="up" depart="542" departSpeed="5"/>
    <vehicle id="up_221" type="car" route="up" depart="545" departSpeed="5"/>
    <vehicle id="up_222" type="car" route="up" depart="551" departSpeed="5"/>
    <vehicle id="right_223" type="car" route="right" depart="556" departSpeed="5"/>
    <vehicle id="left_224" type="car" route="left" depart="556" departSpeed="5"/>
    <vehicle id="up_225" type="car" route="up" depart="561" departSpeed="5"/>
    <vehicle id="right_226" type="car" route="right" depart="562" departSpeed="5"/>
    <vehicle id="up_227" type="car" route="up" depart="569" departSpeed="5"/>
    <vehicle id="left_228" type="car" route="left" depart="576" departSpeed="5"/>
    <vehicle id="up_229" type="car" route="up" depart="578" departSpeed="5"/>
    <vehicle id="right_230" type="car" route="right" depart="582" departSpeed="5"/>
    <vehicle id="left_231" type="car" route="left" depart="586" departSpeed="5"/>
    <vehicle id="up_232" type="car" route="up" depart="588" departSpeed="5"/>
    <vehicle id="left_233" type="car" route="left" depart="590" departSpeed="5"/>
    <vehicle id="up_234" type="car" route="up" depart="591" departSpeed="5"/>
    <vehicle id="up_235" type="car" route="up" depart="594" departSpeed="5"/>
    <vehicle id="down_236" type="car" route="down" depart="596" departSpeed="5"/>
    <vehicle id="up_237" type="car" route="up" depart="596" departSpeed="5"/>
    <vehicle id="right_238" type="car" route="right" depart="597" departSpeed="5"/>
    <vehicle id="down_239" type="car" route="down" depart="597" departSpeed="5"/>
    <vehicle id="up_240" type="car" route="up" depart="601" departSpeed="5"/>
    <vehicle id="down_241" type="car" route="down" depart="603" departSpeed="5"/>
    <vehicle id="right_242" type="car" route="right" depart="604" departSpeed="5"/>
    <vehicle id="down_243" type="car" route="down" depart="605" departSpeed="5"/>
    <vehicle id="down_244" type="car" route="down" depart="612" departSpeed="5"/>
    <vehicle id="down_245" type="car" route="down" depart="613" departSpeed="5"/>
    <vehicle id="right_246" type="car" route="right" depart="614" departSpeed="5"/>
    <vehicle id="left_247" type="car" route="left" depart="618" departSpeed="5"/>
    <vehicle id="down_248" type="car" route="down" depart="620" departSpeed="5"/>
    <vehicle id="right_249" type="car" route="right" depart="621" departSpeed="5"/>
    <vehicle id="right_250" type="car" route="right" depart="622" departSpeed="5"/>
    <vehicle id="up_251" type="car" route="up" depart="625" departSpeed="5"/>
    <vehicle id="down_252" type="car" route="down" depart="627" departSpeed="5"/>
    <vehicle id="down_253" type="car" route="down" depart="628" departSpeed="5"/>
    <vehicle id="left_254" type="car" route="left" depart="629" departSpeed="5"/>
    <vehicle id="left_255" type="car" route="left" depart="631" departSpeed="5"/>
    <vehicle id="right_256" type="car" route="right" depart="634" departSpeed="5"/>
    <vehicle id="left_257" type="car" route="left" depart="637" departSpeed="5"/>
    <vehicle id="up_258" type="car" route="up" depart="641" departSpeed="5"/>
    <vehicle id="down_259" type="car" route="down" depart="644" departSpeed="5"/>
    <vehicle id="up_260" type="car" route="up" depart="645" departSpeed="5"/>
    <vehicle id="left_261" type="car" route="left" depart="649" departSpeed="5"/>
    <vehicle id="down_262" type="car" route="down" depart="651" departSpeed="5"/>
    <vehicle id="down_263" type="car" route="down" depart="654" departSpeed="5"/>
    <vehicle id="up_264" type="car" route="up" depart="657" departSpeed="5"/>
    <vehicle id="left_265" type="car" route="left" depart="660" departSpeed="5"/>
    <vehicle id="right_266" type="car" route="right" depart="661" departSpeed="5"/>
    <vehicle id="right_267" type="car" route="right" depart="664" departSpeed="5"/>
    <vehicle id="down_268" type="car" route="down" depart="664" departSpeed="5"/>
    <vehicle id="up_269" type="car" route="up" depart="664" departSpeed="5"/>
    <vehicle id="up_270" type="car" route="up" depart="666" departSpeed="5"/>
    <vehicle id="down_271" type="car" route="down" depart="667" departSpeed="5"/>
    <vehicle id="down_272" type="car" route="down" depart="668" departSpeed="5"/>
    <vehicle id="right_273" type="car" route="right" depart="670" departSpeed="5"/>
    <vehicle id="left_274" type="car" route="left" depart="674" departSpeed="5"/>
    <vehicle id="up_275" type="car" route="up" depart="674" departSpeed="5"/>
    <vehicle id="right_276" type="car" route="right" depart="675" departSpeed="5"/>
    <vehicle id="down_277" type="car" route="down" depart="676" departSpeed="5"/>
    <vehicle id="down_278" type="car" route="down" depart="678" departSpeed="5"/>
    <vehicle id="down_279" type="car" route="down" depart="680" departSpeed="5"/>
    <vehicle id="up_280" type="car" route="up" depart="680" departSpeed="5"/>
    <vehicle id="right_281" type="car" route="right" depart="682" departSpeed="5"/>
    <vehicle id="up_282" type="car" route="up" depart="683" departSpeed="5"/>
    <vehicle id="left_283" type="car" route="left" depart="684" departSpeed="5"/>
    <vehicle id="left_284" type="car" route="left" depart="685" departSpeed="5"/>
    <vehicle id="down_285" type="car" route="down" depart="688" departSpeed="5"/>
    <vehicle id="down_286" type="car" route="down" depart="690" departSpeed="5"/>
    <vehicle id="down_287" type="car" route="down" depart="691" departSpeed="5"/>
    <vehicle id="right_288" type="car" route="right" depart="692" departSpeed="5"/>
    <vehicle id="right_289" type="car" route="right" depart="698" departSpeed="5"/>
    <vehicle id="right_290" type="car" route="right" depart="700" departSpeed="5"/>
    <vehicle id="up_291" type="car" route="up" depart="702" departSpeed="5"/>
    <vehicle id="up_292" type="car" route="up" depart="703" departSpeed="5"/>
    <vehicle id="right_293" type="car" route="right" depart="705" departSpeed="5"/>
    <vehicle id="left_294" type="car" route="left" depart="705" departSpeed="5"/>
    <vehicle id="right_295" type="car" route="right" depart="706" departSpeed="5"/>
    <vehicle id="up_296" type="car" route="up" depart="706" departSpeed="5"/>
    <vehicle id="up_297" type="car" route="up" depart="707" departSpeed="5"/>
    <vehicle id="up_298" type="car" route="up" depart="709" departSpeed="5"/>
    <vehicle id="left_299" type="car" route="left" depart="710" departSpeed="5"/>
    <vehicle id="up_300" type="car" route="up" depart="710" departSpeed="5"/>
    <vehicle id="up_301" type="car" route="up" depart="712" departSpeed="5"/>
    <vehicle id="left_302" type="car" route="left" depart="723" departSpeed="5"/>
    <vehicle id="down_303" type="car" route="down" depart="726" departSpeed="5"/>
    <vehicle id="right_304" type="car" route="right" depart="730" departSpeed="5"/>
    <vehicle id="up_305" type="car" route="up" depart="731" departSpeed="5"/>
    <vehicle id="right_306" type="car" route="right" depart="734" departSpeed="5"/>
    <vehicle id="up_307" type="car" route="up" depart="738" departSpeed="5"/>
    <vehicle id="down_308" type="car" route="down" depart="740" departSpeed="5"/>
    <vehicle id="right_309" type="car" route="right" depart="743" departSpeed="5"/>
    <vehicle id="left_310" type="car" route="left" depart="746" departSpeed="5"/>
    <vehicle id="down_311" type="car" route="down" depart="748" departSpeed="5"/>
    <vehicle id="left_312" type="car" route="left" depart="750" departSpeed="5"/>
    <vehicle id="right_313" type="car" route="right" depart="753" departSpeed="5"/>
    <vehicle id="down_314" type="car" route="down" depart="755" departSpeed="5"/>
    <vehicle id="up_315" type="car" route="up" depart="755" departSpeed="5"/>
    <vehicle id="right_316" type="car" route="right" depart="757" departSpeed="5"/>
    <vehicle id="left_317" type="car" route="left" depart="758" departSpeed="5"/>
    <vehicle id="down_318" type="car" route="down" depart="761" departSpeed="5"/>
    <vehicle id="left_319" type="car" route="left" depart="770" departSpeed="5"/>
    <vehicle id="up_320" type="car" route="up" depart="782" departSpeed="5"/>
    <vehicle id="up_321" type="car" route="up" depart="784" departSpeed="5"/>
    <vehicle id="down_322" type="car" route="down" depart="787" departSpeed="5"/>
    <vehicle id="down_323" type="car" route="down" depart="789" departSpeed="5"/>
    <vehicle id="left_324" type="car" route="left" depart="793" departSpeed="5"/>
    <vehicle id="right_325" type="car" route="right" depart="796" departSpeed="5"/>
    <vehicle id="down_326" type="car" route="down" depart="797" departSpeed="5"/>
    <vehicle id="up_327" type="car" route="up" depart="797" departSpeed="5"/>
    <vehicle id="down_328" type="car" route="down" depart="798" departSpeed="5"/>
    <vehicle id="right_329" type="car" route="right" depart="800" departSpeed="5"/>
    <vehicle id="up_330" type="car" route="up" depart="800" departSpeed="5"/>
    <vehicle id="right_331" type="car" route="right" depart="803" departSpeed="5"/>
    <vehicle id="up_332" type="car" route="up" depart="804" departSpeed="5"/>
    <vehicle id="right_333" type="car" route="right" depart="808" departSpeed="5"/>
    <vehicle id="down_334" type="car" route="down" depart="809" departSpeed="5"/>
    <vehicle id="right_335" type="car" route="right" depart="813" departSpeed="5"/>
    <vehicle id="left_336" type="car" route="left" depart="814" departSpeed="5"/>
    <vehicle id="left_337" type="car" route="left" depart="815" departSpeed="5"/>
    <vehicle id="right_338" type="car" route="right" depart="818" departSpeed="5"/>
    <vehicle id="down_339" type="car" route="down" depart="819" departSpeed="5"/>
    <vehicle id="left_340" type="car" route="left" depart="820" departSpeed="5"/>
    <vehicle id="down_341" type="car" route="down" depart="823" departSpeed="5"/>
    <vehicle id="right_342" type="car" route="right" depart="825" departSpeed="5"/>
    <vehicle id="down_343" type="car" route="down" depart="827" departSpeed="5"/>
    <vehicle id="right_344" type="car" route="right" depart="828" departSpeed="5"/>
    <vehicle id="up_345" type="car" route="up" depart="829" departSpeed="5"/>
    <vehicle id="up_346" type="car" route="up" depart="837" departSpeed="5"/>
    <vehicle id="left_347" type="car" route="left" depart="838" departSpeed="5"/>
    <vehicle id="left_348" type="car" route="left" depart="841" departSpeed="5"/>
    <vehicle id="up_349" type="car" route="up" depart="841" departSpeed="5"/>
    <vehicle id="down_350" type="car" route="down" depart="848" departSpeed="5"/>
    <vehicle id="up_351" type="car" route="up" depart="851" departSpeed="5"/>
    <vehicle id="down_352" type="car" route="down" depart="856" departSpeed="5"/>
    <vehicle id="right_353" type="car" route="right" depart="860" departSpeed="5"/>
    <vehicle id="left_354" type="car" route="left" depart="860" departSpeed="5"/>
    <vehicle id="left_355" type="car" route="left" depart="861" departSpeed="5"/>
    <vehicle id="down_356" type="car" route="down" depart="872" departSpeed="5"/>
    <vehicle id="down_357" type="car" route="down" depart="879" departSpeed="5"/>
    <vehicle id="left_358" type="car" route="left" depart="881" departSpeed="5"/>
    <vehicle id="down_359" type="car" route="down" depart="883" departSpeed="5"/>
    <vehicle id="up_360" type="car" route="up" depart="883" departSpeed="5"/>
    <vehicle id="down_361" type="car" route="down" depart="886" departSpeed="5"/>
    <vehicle id="up_362" type="car" route="up" depart="886" departSpeed="5"/>
    <vehicle id="up_363" type="car" route="up" depart="887" departSpeed="5"/>
    <vehicle id="right_364" type="car" route="right" depart="889" departSpeed="5"/>
    <vehicle id="up_365" type="car" route="up" depart="891" departSpeed="5"/>