<routes>
                               <vType id="car" accel="1.0" decel="4.5" sigma="0.7" length="5" minGap="3" maxSpeed="15" guiShape="passenger"/>

                               <route id="WETop" edges="5i 1i 2o" />
                               <route id="EWTop" edges="2i 1o 5o" />
                               <route id="NS" edges="4i 3o 8i" />
                               <route id="SN" edges="8o 3i 4o" />
                               <route id="WEBottom" edges="9o 7o 11o" />
                               <route id="EWBottom" edges="11i 7i 9i" />

                               <route id="t1" edges="6o 1i 3o 11o" />
                               <route id="t2" edges="8o 7i 10i" />
                               <route id="t3" edges="4i 1o 6i" />
                               <route id="t4" edges="10o 7o 11o" />

                               <route id="t5" edges="9o 7o 8i" />
                               <route id="t6" edges="9o 10i" />
                               <route id="t7" edges="6o 5o" />
                               <route id="t8" edges="4i 3o 11o" />
                               <route id="t9" edges="9o 7o 3i 1o 6i" />
                               
    <vehicle id="SN_0" type="car" route="SN" depart="0" departSpeed="5"/>
    <vehicle id="t2_1" type="car" route="t2" depart="0" departSpeed="5"/>
    <vehicle id="t6_2" type="car" route="t6" depart="0" departSpeed="5"/>
    <vehicle id="t8_3" type="car" route="t8" depart="0" departSpeed="5"/>
    <vehicle id="WEBottom_4" type="car" route="WEBottom" depart="1" departSpeed="5"/>
    <vehicle id="t6_5" type="car" route="t6" depart="1" departSpeed="5"/>
    <vehicle id="WETop_6" type="car" route="WETop" depart="2" departSpeed="5"/>
    <vehicle id="WEBottom_7" type="car" route="WEBottom" depart="2" departSpeed="5"/>
    <vehicle id="EWBottom_8" type="car" route="EWBottom" depart="2" departSpeed="5"/>
    <vehicle id="t4_9" type="car" route="t4" depart="3" departSpeed="5"/>
    <vehicle id="t5_10" type="car" route="t5" depart="3" departSpeed="5"/>
    <vehicle id="WETop_11" type="car" route="WETop" depart="4" departSpeed="5"/>
    <vehicle id="NS_12" type="car" route="NS" depart="4" departSpeed="5"/>
    <vehicle id="t3_13" type="car" route="t3" depart="4" departSpeed="5"/>
    <vehicle id="t4_14" type="car" route="t4" depart="4" departSpeed="5"/>
    <vehicle id="t5_15" type="car" route="t5" depart="4" departSpeed="5"/>
    <vehicle id="EWTop_16" type="car" route="EWTop" depart="5" departSpeed="5"/>
    <vehicle id="WEBottom_17" type="car" route="WEBottom" depart="5" departSpeed="5"/>
    <vehicle id="EWBottom_18" type="car" route="EWBottom" depart="5" departSpeed="5"/>
    <vehicle id="t2_19" type="car" route="t2" depart="5" departSpeed="5"/>
    <vehicle id="t9_20" type="car" route="t9" depart="5" departSpeed="5"/>
    <vehicle id="t2_21" type="car" route="t2" depart="8" departSpeed="5"/>
    <vehicle id="t6_22" type="car" route="t6" depart="9" departSpeed="5"/>
    <vehicle id="EWBottom_23" type="car" route="EWBottom" depart="10" departSpeed="5"/>
    <vehicle id="SN_24" type="car" route="SN" depart="10" departSpeed="5"/>
    <vehicle id="t2_25" type="car" route="t2" depart="10" departSpeed="5"/>
    <vehicle id="t2_26" type="car" route="t2" depart="11" departSpeed="5"/>
    <vehicle id="t3_27" type="car" route="t3" depart="11" departSpeed="5"/>
    <vehicle id="EWTop_28" type="car" route="EWTop" depart="12" departSpeed="5"/>
    <vehicle id="t9_29" type="car" route="t9" depart="12" departSpeed="5"/>
    <vehicle id="t4_30" type="car" route="t4" depart="14" departSpeed="5"/>
    <vehicle id="t5_31" type="car" route="t5" depart="14" departSpeed="5"/>
    <vehicle id="EWTop_32" type="car" route="EWTop" depart="15" departSpeed="5"/>
    <vehicle id="t2_33" type="car" route="t2" depart="15" departSpeed="5"/>
    <vehicle id="t6_34" type="car" route="t6" depart="15" departSpeed="5"/>
    <vehicle id="t7_35" type="car" route="t7" depart="15" departSpeed="5"/>
    <vehicle id="t4_36" type="car" route="t4" depart="17" departSpeed="5"/>
    <vehicle id="t5_37" type="car" route="t5" depart="17" departSpeed="5"/>
    <vehicle id="WEBottom_38" type="car" route="WEBottom" depart="18" departSpeed="5"/>
    <vehicle id="t8_39" type="car" route="t8" depart="18" departSpeed="5"/>
    <vehicle id="t8_40" type="car" route="t8" depart="19" departSpeed="5"/>
    <vehicle id="WEBottom_41" type="car" route="WEBottom" depart="20" departSpeed="5"/>
    <vehicle id="t7_42" type="car" route="t7" depart="20" departSpeed="5"/>
    <vehicle id="NS_43" type="car" route="NS" depart="22" departSpeed="5"/>
    <vehicle id="t6_44" type="car" route="t6" depart="22" departSpeed="5"/>
    <vehicle id="t6_45" type="car" route="t6" depart="22" departSpeed="5"/>
    <vehicle id="EWBottom_46" type="car" route="EWBottom" depart="23" departSpeed="5"/>
    <vehicle id="t2_47" type="car" route="t2" depart="23" departSpeed="5"/>
    <vehicle id="t4_48" type="car" route="t4" depart="23" departSpeed="5"/>
    <vehicle id="t5_49" type="car" route="t5" depart="23" departSpeed="5"/>
    <vehicle id="t7_50" type="car" route="t7" depart="24" departSpeed="5"/>
    <vehicle id="t8_51" type="car" route="t8" depart="24" departSpeed="5"/>
    <vehicle id="t9_52" type="car" route="t9" depart="24" departSpeed="5"/>
    <vehicle id="t6_53" type="car" route="t6" depart="25" departSpeed="5"/>
    <vehicle id="WEBottom_54" type="car" route="WEBottom" depart="27" departSpeed="5"/>
    <vehicle id="EWBottom_55" type="car" route="EWBottom" depart="27" departSpeed="5"/>
    <vehicle id="t8_56" type="car" route="t8" depart="27" departSpeed="5"/>
    <vehicle id="t6_57" type="car" route="t6" depart="29" departSpeed="5"/>
    <vehicle id="t9_58" type="car" route="t9" depart="29" departSpeed="5"/>
    <vehicle id="WEBottom_59" type="car" route="WEBottom" depart="30" departSpeed="5"/>
    <vehicle id="SN_60" type="car" route="SN" depart="30" departSpeed="5"/>
    <vehicle id="t3_61" type="car" route="t3" depart="31" departSpeed="5"/>
    <vehicle id="NS_62" type="car" route="NS" depart="32" departSpeed="5"/>
    <vehicle id="EWBottom_63" type="car" route="EWBottom" depart="33" departSpeed="5"/>
    <vehicle id="t1_64" type="car" route="t1" depart="33" departSpeed="5"/>
    <vehicle id="t3_65" type="car" route="t3" depart="35" departSpeed="5"/>
    <vehicle id="EWTop_66" type="car" route="EWTop" depart="36" departSpeed="5"/>
    <vehicle id="NS_67" type="car" route="NS" depart="36" departSpeed="5"/>
    <vehicle id="t6_68" type="car" route="t6" depart="36" departSpeed="5"/>
    <vehicle id="EWBottom_69" type="car" route="EWBottom" depart="37" departSpeed="5"/>
    <vehicle id="t4_70" type="car" route="t4" depart="37" departSpeed="5"/>
    <vehicle id="t5_71" type="car" route="t5" depart="37" departSpeed="5"/>
    <vehicle id="t7_72" type="car" route="t7" depart="38" departSpeed="5"/>
    <vehicle id="WETop_73" type="car" route="WETop" depart="39" departSpeed="5"/>
    <vehicle id="EWBottom_74" type="car" route="EWBottom" depart="39" departSpeed="5"/>
    <vehicle id="NS_75" type="car" route="NS" depart="39" departSpeed="5"/>
    <vehicle id="SN_76" type="car" route="SN" depart="40" departSpeed="5"/>
    <vehicle id="t8_77" type="car" route="t8" depart="40" departSpeed="5"/>
    <vehicle id="t4_78" type="car" route="t4" depart="43" departSpeed="5"/>
    <vehicle id="t5_79" type="car" route="t5" depart="43" departSpeed="5"/>
    <vehicle id="t2_80" type="car" route="t2" depart="46" departSpeed="5"/>
    <vehicle id="SN_81" type="car" route="SN" depart="47" departSpeed="5"/>
    <vehicle id="t7_82" type="car" route="t7" depart="47" departSpeed="5"/>
    <vehicle id="WETop_83" type="car" route="WETop" depart="49" departSpeed="5"/>
    <vehicle id="SN_84" type="car" route="SN" depart="49" departSpeed="5"/>
    <vehicle id="EWTop_85" type="car" route="EWTop" depart="50" departSpeed="5"/>
    <vehicle id="t1_86" type="car" route="t1" depart="50" departSpeed="5"/>
    <vehicle id="t7_87" type="car" route="t7" depart="51" departSpeed="5"/>
    <vehicle id="t6_88" type="car" route="t6" depart="52" departSpeed="5"/>
    <vehicle id="EWBottom_89" type="car" route="EWBottom" depart="57" departSpeed="5"/>
    <vehicle id="t6_90" type="car" route="t6" depart="57" departSpeed="5"/>
    <vehicle id="t7_91" type="car" route="t7" depart="57" departSpeed="5"/>
    <vehicle id="NS_92" type="car" route="NS" depart="58" departSpeed="5"/>
    <vehicle id="t4_93" type="car" route="t4" depart="60" departSpeed="5"/>
    <vehicle id="t5_94" type="car" route="t5" depart="60" departSpeed="5"/>
    <vehicle id="t2_95" type="car" route="t2" depart="61" departSpeed="5"/>
    <vehicle id="EWTop_96" type="car" route="EWTop" depart="62" departSpeed="5"/>
    <vehicle id="WETop_97" type="car" route="WETop" depart="63" departSpeed="5"/>
    <vehicle id="t3_98" type="car" route="t3" depart="63" departSpeed="5"/>
    <vehicle id="t9_99" type="car" route="t9" depart="63" departSpeed="5"/>
    <vehicle id="t6_100" type="car" route="t6" depart="64" departSpeed="5"/>
    <vehicle id="t6_101" type="car" route="t6" depart="64" departSpeed="5"/>
    <vehicle id="t7_102" type="car" route="t7" depart="65" departSpeed="5"/>
    <vehicle id="WEBottom_103" type="car" route="WEBottom" depart="66" departSpeed="5"/>
    <vehicle id="EWTop_104" type="car" route="EWTop" depart="67" departSpeed="5"/>
    <vehicle id="NS_105" type="car" route="NS" depart="67" departSpeed="5"/>
    <vehicle id="WETop_106" type="car" route="WETop" depart="68" departSpeed="5"/>
    <vehicle id="NS_107" type="car" route="NS" depart="68" departSpeed="5"/>
    <vehicle id="SN_108" type="car" route="SN" depart="68" departSpeed="5"/>
    <vehicle id="WETop_109" type="car" route="WETop" depart="69" departSpeed="5"/>
    <vehicle id="t6_110" type="car" route="t6" depart="69" departSpeed="5"/>
    <vehicle id="t6_111" type="car" route="t6" depart="69" departSpeed="5"/>
    <vehicle id="t9_112" type="car" route="t9" depart="69" departSpeed="5"/>
    <vehicle id="t8_113" type="car" route="t8" depart="70" departSpeed="5"/>
    <vehicle id="t6_114" type="car" route="t6" depart="71" departSpeed="5"/>
    <vehicle id="t6_115" type="car" route="t6" depart="74" departSpeed="5"/>
    <vehicle id="WETop_116" type="car" route="WETop" depart="75" departSpeed="5"/>
    <vehicle id="WEBottom_117" type="car" route="WEBottom" depart="77" departSpeed="5"/>
    <vehicle id="EWBottom_118" type="car" route="EWBottom" depart="77" departSpeed="5"/>
    <vehicle id="SN_119" type="car" route="SN" depart="77" departSpeed="5"/>
    <vehicle id="t6_120" type="car" route="t6" depart="77" departSpeed="5"/>
    <vehicle id="NS_121" type="car" route="NS" depart="78" departSpeed="5"/>
    <vehicle id="SN_122" type="car" route="SN" depart="78" departSpeed="5"/>
    <vehicle id="t1_123" type="car" route="t1" depart="78" departSpeed="5"/>
    <vehicle id="t4_124" type="car" route="t4" depart="78" departSpeed="5"/>
    <vehicle id="t5_125" type="car" route="t5" depart="78" departSpeed="5"/>
    <vehicle id="t3_126" type="car" route="t3" depart="79" departSpeed="5"/>
    <vehicle id="t6_127" type="car" route="t6" depart="79" departSpeed="5"/>
    <vehicle id="t8_128" type="car" route="t8" depart="80" departSpeed="5"/>
    <vehicle id="t6_129" type="car" route="t6" depart="81" departSpeed="5"/>
    <vehicle id="SN_130" type="car" route="SN" depart="82" departSpeed="5"/>
    <vehicle id="t9_131" type="car" route="t9" depart="82" departSpeed="5"/>
    <vehicle id="EWTop_132" type="car" route="EWTop" depart="83" departSpeed="5"/>
    <vehicle id="WEBottom_133" type="car" route="WEBottom" depart="83" departSpeed="5"/>
    <vehicle id="EWBottom_134" type="car" route="EWBottom" depart="83" departSpeed="5"/>
    <vehicle id="SN_135" type="car" route="SN" depart="83" departSpeed="5"/>
    <vehicle id="t4_136" type="car" route="t4" depart="83" departSpeed="5"/>
    <vehicle id="t5_137" type="car" route="t5" depart="83" departSpeed="5"/>
    <vehicle id="WEBottom_138" type="car" route="WEBottom" depart="84" departSpeed="5"/>
    <vehicle id="t1_139" type="car" route="t1" depart="84" departSpeed="5"/>
    <vehicle id="t2_140" type="car" route="t2" depart="85" departSpeed="5"/>
    <vehicle id="WETop_141" type="car" route="WETop" depart="87" departSpeed="5"/>
    <vehicle id="t3_142" type="car" route="t3" depart="90" departSpeed="5"/>
    <vehicle id="t3_143" type="car" route="t3" depart="91" departSpeed="5"/>
    <vehicle id="t8_144" type="car" route="t8" depart="92" departSpeed="5"/>
    <vehicle id="t4_145" type="car" route="t4" depart="93" departSpeed="5"/>
    <vehicle id="t5_146" type="car" route="t5" depart="93" departSpeed="5"/>
    <vehicle id="t6_147" type="car" route="t6" depart="93" departSpeed="5"/>
    <vehicle id="t9_148" type="car" route="t9" depart="93" departSpeed="5"/>
    <vehicle id="SN_149" type="car" route="SN" depart="95" departSpeed="5"/>
    <vehicle id="t2_150" type="car" route="t2" depart="96" departSpeed="5"/>
    <vehicle id="t4_151" type="car" route="t4" depart="96" departSpeed="5"/>
    <vehicle id="t5_152" type="car" route="t5" depart="96" departSpeed="5"/>
    <vehicle id="WETop_153" type="car" route="WETop" depart="97" departSpeed="5"/>
    <vehicle id="EWBottom_154" type="car" route="EWBottom" depart="97" departSpeed="5"/>
    <vehicle id="t1_155" type="car" route="t1" depart="97" departSpeed="5"/>
    <vehicle id="t3_156" type="car" route="t3" depart="97" departSpeed="5"/>
    <vehicle id="t4_157" type="car" route="t4" depart="97" departSpeed="5"/>
    <vehicle id="t5_158" type="car" route="t5" depart="97" departSpeed="5"/>
    <vehicle id="t4_159" type="car" route="t4" depart="98" departSpeed="5"/>
    <vehicle id="t5_160" type="car" route="t5" depart="98" departSpeed="5"/>
    <vehicle id="WEBottom_161" type="car" route="WEBottom" depart="99" departSpeed="5"/>
    <vehicle id="t2_162" type="car" route="t2" depart="99" departSpeed="5"/>
    <vehicle id="t6_163" type="car" route="t6" depart="99" departSpeed="5"/>
    <vehicle id="EWTop_164" type="car" route="EWTop" depart="102" departSpeed="5"/>
    <vehicle id="WEBottom_165" type="car" route="WEBottom" depart="103" departSpeed="5"/>
    <vehicle id="t9_166" type="car" route="t9" depart="104" departSpeed="5"/>
    <vehicle id="t9_167" type="car" route="t9" depart="105" departSpeed="5"/>
    <vehicle id="EWBottom_168" type="car" route="EWBottom" depart="107" departSpeed="5"/>
    <vehicle id="t9_169" type="car" route="t9" depart="107" departSpeed="5"/>
    <vehicle id="WETop_170" type="car" route="WETop" depart="108" departSpeed="5"/>
    <vehicle id="SN_171" type="car" route="SN" depart="108" departSpeed="5"/>
    <vehicle id="EWTop_172" type="car" route="EWTop" depart="109" departSpeed="5"/>
    <vehicle id="EWBottom_173" type="car" route="EWBottom" depart="110" departSpeed="5"/>
    <vehicle id="SN_174" type="car" route="SN" depart="110" departSpeed="5"/>
    <vehicle id="t6_175" type="car" route="t6" depart="110" departSpeed="5"/>
    <vehicle id="EWBottom_176" type="car" route="EWBottom" depart="111" departSpeed="5"/>
    <vehicle id="SN_177" type="car" route="SN" depart="111" departSpeed="5"/>
    <vehicle id="NS_178" type="car" route="NS" depart="112" departSpeed="5"/>
    <vehicle id="SN_179" type="car" route="SN" depart="113" departSpeed="5"/>
    <vehicle id="SN_180" type="car" route="SN" depart="114" departSpeed="5"/>
    <vehicle id="WETop_181" type="car" route="WETop" depart="115" departSpeed="5"/>
    <vehicle id="t6_182" type="car" route="t6" depart="117" departSpeed="5"/>
    <vehicle id="t9_183" type="car" route="t9" depart="117" departSpeed="5"/>
    <vehicle id="t7_184" type="car" route="t7" depart="118" departSpeed="5"/>
    <vehicle id="NS_185" type="car" route="NS" depart="119" departSpeed="5"/>
    <vehicle id="WETop_186" type="car" route="WETop" depart="120" departSpeed="5"/>
    <vehicle id="t6_187" type="car" route="t6" depart="120" departSpeed="5"/>
    <vehicle id="t7_188" type="car" route="t7" depart="120" departSpeed="5"/>
    <vehicle id="t6_189" type="car" route="t6" depart="121" departSpeed="5"/>
    <vehicle id="t3_190" type="car" route="t3" depart="122" departSpeed="5"/>
    <vehicle id="t4_191" type="car" route="t4" depart="125" departSpeed="5"/>
    <vehicle id="t5_192" type="car" route="t5" depart="125" departSpeed="5"/>
    <vehicle id="NS_193" type="car" route="NS" depart="126" departSpeed="5"/>
    <vehicle id="t2_194" type="car" route="t2" depart="126" departSpeed="5"/>
    <vehicle id="t3_195" type="car" route="t3" depart="126" departSpeed="5"/>
    <vehicle id="t9_196" type="car" route="t9" depart="127" departSpeed="5"/>
    <vehicle id="WETop_197" type="car" route="WETop" depart="130" departSpeed="5"/>
    <vehicle id="NS_198" type="car" route="NS" depart="130" departSpeed="5"/>
    <vehicle id="SN_199" type="car" route="SN" depart="130" departSpeed="5"/>
    <vehicle id="t7_200" type="car" route="t7" depart="131" departSpeed="5"/>
    <vehicle id="t1_201" type="car" route="t1" depart="132" departSpeed="5"/>
    <vehicle id="t4_202" type="car" route="t4" depart="132" departSpeed="5"/>
    <vehicle id="t5_203" type="car" route="t5" depart="132" departSpeed="5"/>
    <vehicle id="EWBottom_204" type="car" route="EWBottom" depart="133" departSpeed="5"/>
    <vehicle id="WETop_205" type="car" route="WETop" depart="135" departSpeed="5"/>
    <vehicle id="WETop_206" type="car" route="WETop" depart="137" departSpeed="5"/>
    <vehicle id="WEBottom_207" type="car" route="WEBottom" depart="137" departSpeed="5"/>
    <vehicle id="t4_208" type="car" route="t4" depart="138" departSpeed="5"/>
    <vehicle id="t5_209" type="car" route="t5" depart="138" departSpeed="5"/>
    <vehicle id="t6_210" type="car" route="t6" depart="138" departSpeed="5"/>
    <vehicle id="t9_211" type="car" route="t9" depart="138" departSpeed="5"/>
    <vehicle id="WETop_212" type="car" route="WETop" depart="139" departSpeed="5"/>
    <vehicle id="t3_213" type="car" route="t3" depart="139" departSpeed="5"/>
    <vehicle id="WEBottom_214" type="car" route="WEBottom" depart="140" departSpeed="5"/>
    <vehicle id="EWBottom_215" type="car" route="EWBottom" depart="143" departSpeed="5"/>
    <vehicle id="t6_216" type="car" route="t6" depart="143" departSpeed="5"/>
    <vehicle id="NS_217" type="car" route="NS" depart="144" departSpeed="5"/>
    <vehicle id="t4_218" type="car" route="t4" depart="144" departSpeed="5"/>
    <vehicle id="t5_219" type="car" route="t5" depart="144" departSpeed="5"/>
    <vehicle id="t6_220" type="car" route="t6" depart="144" departSpeed="5"/>
    <vehicle id="t6_221" type="car" route="t6" depart="144" departSpeed="5"/>
    <vehicle id="t7_222" type="car" route="t7" depart="144" departSpeed="5"/>
    <vehicle id="t4_223" type="car" route="t4" depart="145" departSpeed="5"/>
    <vehicle id="t5_224" type="car" route="t5" depart="145" departSpeed="5"/>
    <vehicle id="EWTop_225" type="car" route="EWTop" depart="146" departSpeed="5"/>
    <vehicle id="WEBottom_226" type="car" route="WEBottom" depart="146" departSpeed="5"/>
    <vehicle id="t1_227" type="car" route="t1" depart="146" departSpeed="5"/>
    <vehicle id="SN_228" type="car" route="SN" depart="148" departSpeed="5"/>
    <vehicle id="t4_229" type="car" route="t4" depart="148" departSpeed="5"/>
    <vehicle id="t5_230" type="car" route="t5" depart="148" departSpeed="5"/>
    <vehicle id="t2_231" type="car" route="t2" depart="149" departSpeed="5"/>
    <vehicle id="WETop_232" type="car" route="WETop" depart="150" departSpeed="5"/>
    <vehicle id="t1_233" type="car" route="t1" depart="150" departSpeed="5"/>
    <vehicle id="t6_234" type="car" route="t6" depart="150" departSpeed="5"/>
    <vehicle id="t7_235" type="car" route="t7" depart="150" departSpeed="5"/>
    <vehicle id="NS_236" type="car" route="NS" depart="152" departSpeed="5"/>
    <vehicle id="t4_237" type="car" route="t4" depart="154" departSpeed="5"/>
    <vehicle id="t5_238" type="car" route="t5" depart="154" departSpeed="5"/>
    <vehicle id="t2_239" type="car" route="t2" depart="156" departSpeed="5"/>
    <vehicle id="t9_240" type="car" route="t9" depart="156" departSpeed="5"/>
    <vehicle id="t3_241" type="car" route="t3" depart="157" departSpeed="5"/>
    <vehicle id="SN_242" type="car" route="SN" depart="158" departSpeed="5"/>
    <vehicle id="t4_243" type="car" route="t4" depart="158" departSpeed="5"/>
    <vehicle id="t5_244" type="car" route="t5" depart="158" departSpeed="5"/>
    <vehicle id="t6_245" type="car" route="t6" depart="158" departSpeed="5"/>
    <vehicle id="t8_246" type="car" route="t8" depart="158" departSpeed="5"/>
    <vehicle id="EWBottom_247" type="car" route="EWBottom" depart="159" departSpeed="5"/>
    <vehicle id="NS_248" type="car" route="NS" depart="160" departSpeed="5"/>
    <vehicle id="t2_249" type="car" route="t2" depart="160" departSpeed="5"/>
    <vehicle id="t6_250" type="car" route="t6" depart="160" departSpeed="5"/>
    <vehicle id="t7_251" type="car" route="t7" depart="160" departSpeed="5"/>
    <vehicle id="t4_252" type="car" route="t4" depart="162" departSpeed="5"/>
    <vehicle id="t5_253" type="car" route="t5" depart="162" departSpeed="5"/>
    <vehicle id="t6_254" type="car" route="t6" depart="162" departSpeed="5"/>
    <vehicle id="t8_255" type="car" route="t8" depart="162" departSpeed="5"/>
    <vehicle id="t6_256" type="car" route="t6" depart="163" departSpeed="5"/>
    <vehicle id="t8_257" type="car" route="t8" depart="163" departSpeed="5"/>
    <vehicle id="t4_258" type="car" route="t4" depart="164" departSpeed="5"/>
    <vehicle id="t5_259" type="car" route="t5" depart="164" departSpeed="5"/>
    <vehicle id="EWTop_260" type="car" route="EWTop" depart="166" departSpeed="5"/>
    <vehicle id="t9_261" type="car" route="t9" depart="166" departSpeed="5"/>
    <vehicle id="WEBottom_262" type="car" route="WEBottom" depart="167" departSpeed="5"/>
    <vehicle id="t1_263" type="car" route="t1" depart="167" departSpeed="5"/>
    <vehicle id="t8_264" type="car" route="t8" depart="168" departSpeed="5"/>
    <vehicle id="t8_265" type="car" route="t8" depart="169" departSpeed="5"/>
    <vehicle id="t6_266" type="car" route="t6" depart="170" departSpeed="5"/>
    <vehicle id="t7_267" type="car" route="t7" depart="170" departSpeed="5"/>
    <vehicle id="SN_268" type="car" route="SN" depart="171" departSpeed="5"/>
    <vehicle id="t6_269" type="car" route="t6" depart="172" departSpeed="5"/>
    <vehicle id="NS_270" type="car" route="NS" depart="173" departSpeed="5"/>
    <vehicle id="EWBottom_271" type="car" route="EWBottom" depart="174" departSpeed="5"/>
    <vehicle id="SN_272" type="car" route="SN" depart="174" departSpeed="5"/>
    <vehicle id="t6_273" type="car" route="t6" depart="174" departSpeed="5"/>
    <vehicle id="t3_274" type="car" route="t3" depart="175" departSpeed="5"/>
    <vehicle id="t6_275" type="car" route="t6" depart="175" departSpeed="5"/>
    <vehicle id="t3_276" type="car" route="t3" depart="176" departSpeed="5"/>
    <vehicle id="NS_277" type="car" route="NS" depart="177" departSpeed="5"/>
    <vehicle id="t3_278" type="car" route="t3" depart="177" departSpeed="5"/>
    <vehicle id="t6_279" type="car" route="t6" depart="177" departSpeed="5"/>
    <vehicle id="t9_280" type="car" route="t9" depart="177" departSpeed="5"/>
    <vehicle id="EWTop_281" type="car" route="EWTop" depart="178" departSpeed="5"/>
    <vehicle id="t1_282" type="car" route="t1" depart="178" departSpeed="5"/>
    <vehicle id="t3_283" type="car" route="t3" depart="178" departSpeed="5"/>
    <vehicle id="SN_284" type="car" route="SN" depart="180" departSpeed="5"/>
    <vehicle id="t3_285" type="car" route="t3" depart="180" departSpeed="5"/>
    <vehicle id="EWTop_286" type="car" route="EWTop" depart="181" departSpeed="5"/>
    <vehicle id="t1_287" type="car" route="t1" depart="181" departSpeed="5"/>
    <vehicle id="t6_288" type="car" route="t6" depart="181" departSpeed="5"/>
    <vehicle id="t7_289" type="car" route="t7" depart="181" departSpeed="5"/>
    <vehicle id="t1_290" type="car" route="t1" depart="184" departSpeed="5"/>
    <vehicle id="t2_291" type="car" route="t2" depart="184" departSpeed="5"/>
    <vehicle id="t3_292" type="car" route="t3" depart="184" departSpeed="5"/>
    <vehicle id="t4_293" type="car" route="t4" depart="184" departSpeed="5"/>
    <vehicle id="t5_294" type="car" route="t5" depart="184" departSpeed="5"/>
    <vehicle id="t7_295" type="car" route="t7" depart="184" departSpeed="5"/>
    <vehicle id="t4_296" type="car" route="t4" depart="185" departSpeed="5"/>
    <vehicle id="t5_297" type="car" route="t5" depart="185" departSpeed="5"/>
    <vehicle id="t9_298" type="car" route="t9" depart="185" departSpeed="5"/>
    <vehicle id="EWTop_299" type="car" route="EWTop" depart="186" departSpeed="5"/>
    <vehicle id="t8_300" type="car" route="t8" depart="186" departSpeed="5"/>
    <vehicle id="t1_301" type="car" route="t1" depart="187" departSpeed="5"/>
    <vehicle id="WETop_302" type="car" route="WETop" depart="188" departSpeed="5"/>
    <vehicle id="NS_303" type="car" route="NS" depart="188" departSpeed="5"/>
    <vehicle id="SN_304" type="car" route="SN" depart="188" departSpeed="5"/>
    <vehicle id="t4_305" type="car" route="t4" depart="188" departSpeed="5"/>
    <vehicle id="t5_306" type="car" route="t5" depart="188" departSpeed="5"/>
    <vehicle id="t1_307" type="car" route="t1" depart="189" departSpeed="5"/>
    <vehicle id="EWBottom_308" type="car" route="EWBottom" depart="190" departSpeed="5"/>
    <vehicle id="t3_309" type="car" route="t3" depart="191" departSpeed="5"/>
    <vehicle id="t6_310" type="car" route="t6" depart="193" departSpeed="5"/>
    <vehicle id="WEBottom_311" type="car" route="WEBottom" depart="195" departSpeed="5"/>
    <vehicle id="t1_312" type="car" route="t1" depart="195" departSpeed="5"/>
    <vehicle id="t4_313" type="car" route="t4" depart="195" departSpeed="5"/>
    <vehicle id="t5_314" type="car" route="t5" depart="195" departSpeed="5"/>
    <vehicle id="t6_315" type="car" route="t6" depart="195" departSpeed="5"/>
    <vehicle id="t6_316" type="car" route="t6" depart="196" departSpeed="5"/>
    <vehicle id="WETop_317" type="car" route="WETop" depart="197" departSpeed="5"/>
    <vehicle id="SN_318" type="car" route="SN" depart="197" departSpeed="5"/>
    <vehicle id="t4_319" type="car" route="t4" depart="197" departSpeed="5"/>
    <vehicle id="t5_320" type="car" route="t5" depart="197" departSpeed="5"/>
    <vehicle id="t8_321" type="car" route="t8" depart="197" departSpeed="5"/>
    <vehicle id="EWTop_322" type="car" route="EWTop" depart="198" departSpeed="5"/>
    <vehicle id="NS_323" type="car" route="NS" depart="200" departSpeed="5"/>
    <vehicle id="t1_324" type="car" route="t1" depart="200" departSpeed="5"/>
    <vehicle id="t1_325" type="car" route="t1" depart="202" departSpeed="5"/>
    <vehicle id="EWTop_326" type="car" route="EWTop" depart="205" departSpeed="5"/>
    <vehicle id="WEBottom_327" type="car" route="WEBottom" depart="205" departSpeed="5"/>
    <vehicle id="WETop_328" type="car" route="WETop" depart="206" departSpeed="5"/>
    <vehicle id="t6_329" type="car" route="t6" depart="206" departSpeed="5"/>
    <vehicle id="EWTop_330" type="car" route="EWTop" depart="207" departSpeed="5"/>
    <vehicle id="EWBottom_331" type="car" route="EWBottom" depart="207" departSpeed="5"/>
    <vehicle id="t4_332" type="car" route="t4" depart="208" departSpeed="5"/>
    <vehicle id="t5_333" type="car" route="t5" depart="208" departSpeed="5"/>
    <vehicle id="NS_334" type="car" route="NS" depart="209" departSpeed="5"/>
    <vehicle id="WETop_335" type="car" route="WETop" depart="210" departSpeed="5"/>
    <vehicle id="EWTop_336" type="car" route="EWTop" depart="210" departSpeed="5"/>
    <vehicle id="WETop_337" type="car" route="WETop" depart="211" departSpeed="5"/>
    <vehicle id="t3_338" type="car" route="t3" depart="211" departSpeed="5"/>
    <vehicle id="t2_339" type="car" route="t2" depart="212" departSpeed="5"/>
    <vehicle id="t6_340" type="car" route="t6" depart="213" departSpeed="5"/>
    <vehicle id="t6_341" type="car" route="t6" depart="214" departSpeed="5"/>
    <vehicle id="t8_342" type="car" route="t8" depart="214" departSpeed="5"/>
    <vehicle id="t9_343" type="car" route="t9" depart="214" departSpeed="5"/>
    <vehicle id="WEBottom_344" type="car" route="WEBottom" depart="215" departSpeed="5"/>
    <vehicle id="t1_345" type="car" route="t1" depart="215" departSpeed="5"/>
    <vehicle id="t2_346" type="car" route="t2" depart="215" departSpeed="5"/>
    <vehicle id="t3_347" type="car" route="t3" depart="215" departSpeed="5"/>
    <vehicle id="t6_348" type="car" route="t6" depart="215" departSpeed="5"/>
    <vehicle id="t8_349" type="car" route="t8" depart="215" departSpeed="5"/>
    <vehicle id="t9_350" type="car" route="t9" depart="215" departSpeed="5"/>
    <vehicle id="t2_351" type="car" route="t2" depart="216" departSpeed="5"/>
    <vehicle id="EWTop_352" type="car" route="EWTop" depart="217" departSpeed="5"/>
    <vehicle id="t9_353" type="car" route="t9" depart="217" departSpeed="5"/>
    <vehicle id="EWTop_354" type="car" route="EWTop" depart="218" departSpeed="5"/>
    <vehicle id="t3_355" type="car" route="t3" depart="218" departSpeed="5"/>
    <vehicle id="t4_356" type="car" route="t4" depart="218" departSpeed="5"/>
    <vehicle id="t5_357" type="car" route="t5" depart="218" departSpeed="5"/>
    <vehicle id="t8_358" type="car" route="t8" depart="219" departSpeed="5"/>
    <vehicle id="WEBottom_359" type="car" route="WEBottom" depart="220" departSpeed="5"/>
    <vehicle id="NS_360" type="car" route="NS" depart="220" departSpeed="5"/>
    <vehicle id="t6_361" type="car" route="t6" depart="220" departSpeed="5"/>
    <vehicle id="t6_362" type="car" route="t6" depart="220" departSpeed="5"/>